_audit_creation_date      'Aug. 18, 2022'
_audit_creation_method    'Draft CIF file generated with Atomsk'
 
_chemical_name_common             ?
_chemical_melting_point           ?
_chemical_formula_iupac           'Nb4000 Mo4000 W4000 Ta4000'
_chemical_formula_moiety          'Nb4000 Mo4000 W4000 Ta4000'
_chemical_formula_sum             'Nb4000 Mo4000 W4000 Ta4000'
_chemical_formula_weight          2214617.040
_chemical_compound_source         ?
_chemical_absolute_configuration  ?
_exptl_crystal_description        'EDIT-ENTRY'
_diffrn_measurement_device_type   'EDIT-ENTRY'
 
_space_group_IT_number            1
_space_group_crystal_system       cubic
_symmetry_space_group_name_Hall   'P 1'
_symmetry_space_group_name_H-M    'P 1'
 
loop_
_space_group_symop_operation_xyz
'+x,+y,+z'
 
_cell_length_a                    57.5400
_cell_length_b                    57.5400
_cell_length_c                    57.5400
_cell_angle_alpha                 90.0000
_cell_angle_beta                  90.0000
_cell_angle_gamma                 90.0000
_cell_volume                      190506.4011
 
loop_
 _atom_site_label
 _atom_site_type_symbol
 _atom_site_fract_x
 _atom_site_fract_y
 _atom_site_fract_z
Nb1  Nb  0.000000  0.000000  0.000000
Mo1  Mo  0.025000  0.025000  0.025000
W1  W  0.050000  0.000000  0.000000
Ta1  Ta  0.075000  0.025000  0.025000
Ta2  Ta  0.100000  0.000000  0.000000
Nb2  Nb  0.125000  0.025000  0.025000
Nb3  Nb  0.150000  0.000000  0.000000
W2  W  0.175000  0.025000  0.025000
Ta3  Ta  0.200000  0.000000  0.000000
Nb4  Nb  0.225000  0.025000  0.025000
Mo2  Mo  0.250000  0.000000  0.000000
Mo3  Mo  0.275000  0.025000  0.025000
W3  W  0.300000  0.000000  0.000000
Ta4  Ta  0.325000  0.025000  0.025000
Nb5  Nb  0.350000  0.000000  0.000000
Nb6  Nb  0.375000  0.025000  0.025000
Mo4  Mo  0.400000  0.000000  0.000000
W4  W  0.425000  0.025000  0.025000
Ta5  Ta  0.450000  0.000000  0.000000
Mo5  Mo  0.475000  0.025000  0.025000
Mo6  Mo  -0.000000  0.050000  0.000000
Ta6  Ta  0.025000  0.075000  0.025000
Ta7  Ta  0.050000  0.050000  0.000000
W5  W  0.075000  0.075000  0.025000
W6  W  0.100000  0.050000  0.000000
W7  W  0.125000  0.075000  0.025000
Mo7  Mo  0.150000  0.050000  0.000000
Mo8  Mo  0.175000  0.075000  0.025000
Nb7  Nb  0.200000  0.050000  0.000000
Mo9  Mo  0.225000  0.075000  0.025000
Nb8  Nb  0.250000  0.050000  0.000000
W8  W  0.275000  0.075000  0.025000
W9  W  0.300000  0.050000  0.000000
Nb9  Nb  0.325000  0.075000  0.025000
Ta8  Ta  0.350000  0.050000  0.000000
Mo10  Mo  0.375000  0.075000  0.025000
Ta9  Ta  0.400000  0.050000  0.000000
W10  W  0.425000  0.075000  0.025000
Nb10  Nb  0.450000  0.050000  0.000000
W11  W  0.475000  0.075000  0.025000
Mo11  Mo  -0.000000  0.100000  0.000000
Ta10  Ta  0.025000  0.125000  0.025000
Mo12  Mo  0.050000  0.100000  0.000000
W12  W  0.075000  0.125000  0.025000
Ta11  Ta  0.100000  0.100000  0.000000
W13  W  0.125000  0.125000  0.025000
Nb11  Nb  0.150000  0.100000  0.000000
W14  W  0.175000  0.125000  0.025000
Nb12  Nb  0.200000  0.100000  0.000000
W15  W  0.225000  0.125000  0.025000
W16  W  0.250000  0.100000  0.000000
Mo13  Mo  0.275000  0.125000  0.025000
W17  W  0.300000  0.100000  0.000000
Mo14  Mo  0.325000  0.125000  0.025000
Ta12  Ta  0.350000  0.100000  0.000000
W18  W  0.375000  0.125000  0.025000
Ta13  Ta  0.400000  0.100000  0.000000
W19  W  0.425000  0.125000  0.025000
Mo15  Mo  0.450000  0.100000  0.000000
Ta14  Ta  0.475000  0.125000  0.025000
Ta15  Ta  -0.000000  0.150000  0.000000
Ta16  Ta  0.025000  0.175000  0.025000
Mo16  Mo  0.050000  0.150000  0.000000
Nb13  Nb  0.075000  0.175000  0.025000
W20  W  0.100000  0.150000  0.000000
Mo17  Mo  0.125000  0.175000  0.025000
Ta17  Ta  0.150000  0.150000  0.000000
W21  W  0.175000  0.175000  0.025000
Mo18  Mo  0.200000  0.150000  0.000000
W22  W  0.225000  0.175000  0.025000
Nb14  Nb  0.250000  0.150000  0.000000
W23  W  0.275000  0.175000  0.025000
Mo19  Mo  0.300000  0.150000  0.000000
W24  W  0.325000  0.175000  0.025000
Ta18  Ta  0.350000  0.150000  0.000000
Ta19  Ta  0.375000  0.175000  0.025000
W25  W  0.400000  0.150000  0.000000
Nb15  Nb  0.425000  0.175000  0.025000
Mo20  Mo  0.450000  0.150000  0.000000
Nb16  Nb  0.475000  0.175000  0.025000
Ta20  Ta  -0.000000  0.200000  0.000000
Nb17  Nb  0.025000  0.225000  0.025000
Ta21  Ta  0.050000  0.200000  0.000000
W26  W  0.075000  0.225000  0.025000
W27  W  0.100000  0.200000  0.000000
Nb18  Nb  0.125000  0.225000  0.025000
W28  W  0.150000  0.200000  0.000000
Ta22  Ta  0.175000  0.225000  0.025000
Mo21  Mo  0.200000  0.200000  0.000000
W29  W  0.225000  0.225000  0.025000
Mo22  Mo  0.250000  0.200000  0.000000
Ta23  Ta  0.275000  0.225000  0.025000
Nb19  Nb  0.300000  0.200000  0.000000
W30  W  0.325000  0.225000  0.025000
Ta24  Ta  0.350000  0.200000  0.000000
Ta25  Ta  0.375000  0.225000  0.025000
W31  W  0.400000  0.200000  0.000000
Nb20  Nb  0.425000  0.225000  0.025000
Ta26  Ta  0.450000  0.200000  0.000000
Ta27  Ta  0.475000  0.225000  0.025000
Ta28  Ta  -0.000000  0.250000  0.000000
W32  W  0.025000  0.275000  0.025000
Mo23  Mo  0.050000  0.250000  0.000000
Nb21  Nb  0.075000  0.275000  0.025000
Ta29  Ta  0.100000  0.250000  0.000000
W33  W  0.125000  0.275000  0.025000
Ta30  Ta  0.150000  0.250000  0.000000
Ta31  Ta  0.175000  0.275000  0.025000
Ta32  Ta  0.200000  0.250000  0.000000
Ta33  Ta  0.225000  0.275000  0.025000
Nb22  Nb  0.250000  0.250000  0.000000
Ta34  Ta  0.275000  0.275000  0.025000
Nb23  Nb  0.300000  0.250000  0.000000
Mo24  Mo  0.325000  0.275000  0.025000
W34  W  0.350000  0.250000  0.000000
Ta35  Ta  0.375000  0.275000  0.025000
W35  W  0.400000  0.250000  0.000000
Ta36  Ta  0.425000  0.275000  0.025000
Nb24  Nb  0.450000  0.250000  0.000000
Mo25  Mo  0.475000  0.275000  0.025000
Mo26  Mo  -0.000000  0.300000  0.000000
Mo27  Mo  0.025000  0.325000  0.025000
W36  W  0.050000  0.300000  0.000000
Mo28  Mo  0.075000  0.325000  0.025000
W37  W  0.100000  0.300000  0.000000
W38  W  0.125000  0.325000  0.025000
Nb25  Nb  0.150000  0.300000  0.000000
Nb26  Nb  0.175000  0.325000  0.025000
Mo29  Mo  0.200000  0.300000  0.000000
W39  W  0.225000  0.325000  0.025000
W40  W  0.250000  0.300000  0.000000
Ta37  Ta  0.275000  0.325000  0.025000
Nb27  Nb  0.300000  0.300000  0.000000
Ta38  Ta  0.325000  0.325000  0.025000
Ta39  Ta  0.350000  0.300000  0.000000
W41  W  0.375000  0.325000  0.025000
Mo30  Mo  0.400000  0.300000  0.000000
W42  W  0.425000  0.325000  0.025000
W43  W  0.450000  0.300000  0.000000
W44  W  0.475000  0.325000  0.025000
Mo31  Mo  -0.000000 -0.000000  0.050000
Nb28  Nb  0.025000  0.025000  0.075000
Ta40  Ta  0.050000 -0.000000  0.050000
Ta41  Ta  0.075000  0.025000  0.075000
Ta42  Ta  0.100000 -0.000000  0.050000
Nb29  Nb  0.125000  0.025000  0.075000
Ta43  Ta  0.150000 -0.000000  0.050000
Ta44  Ta  0.175000  0.025000  0.075000
Mo32  Mo  0.200000 -0.000000  0.050000
W45  W  0.225000  0.025000  0.075000
Mo33  Mo  0.250000 -0.000000  0.050000
W46  W  0.275000  0.025000  0.075000
Mo34  Mo  0.300000 -0.000000  0.050000
Mo35  Mo  0.325000  0.025000  0.075000
Mo36  Mo  0.350000 -0.000000  0.050000
Ta45  Ta  0.375000  0.025000  0.075000
Mo37  Mo  0.400000 -0.000000  0.050000
W47  W  0.425000  0.025000  0.075000
Nb30  Nb  0.450000 -0.000000  0.050000
W48  W  0.475000  0.025000  0.075000
Mo38  Mo  -0.000000  0.050000  0.050000
Nb31  Nb  0.025000  0.075000  0.075000
W49  W  0.050000  0.050000  0.050000
Mo39  Mo  0.075000  0.075000  0.075000
W50  W  0.100000  0.050000  0.050000
Ta46  Ta  0.125000  0.075000  0.075000
W51  W  0.150000  0.050000  0.050000
W52  W  0.175000  0.075000  0.075000
Mo40  Mo  0.200000  0.050000  0.050000
Mo41  Mo  0.225000  0.075000  0.075000
Nb32  Nb  0.250000  0.050000  0.050000
Ta47  Ta  0.275000  0.075000  0.075000
W53  W  0.300000  0.050000  0.050000
Nb33  Nb  0.325000  0.075000  0.075000
Mo42  Mo  0.350000  0.050000  0.050000
Nb34  Nb  0.375000  0.075000  0.075000
Mo43  Mo  0.400000  0.050000  0.050000
Nb35  Nb  0.425000  0.075000  0.075000
W54  W  0.450000  0.050000  0.050000
Mo44  Mo  0.475000  0.075000  0.075000
Mo45  Mo  -0.000000  0.100000  0.050000
Mo46  Mo  0.025000  0.125000  0.075000
Nb36  Nb  0.050000  0.100000  0.050000
Ta48  Ta  0.075000  0.125000  0.075000
Ta49  Ta  0.100000  0.100000  0.050000
Nb37  Nb  0.125000  0.125000  0.075000
Mo47  Mo  0.150000  0.100000  0.050000
Ta50  Ta  0.175000  0.125000  0.075000
Nb38  Nb  0.200000  0.100000  0.050000
W55  W  0.225000  0.125000  0.075000
Ta51  Ta  0.250000  0.100000  0.050000
Ta52  Ta  0.275000  0.125000  0.075000
W56  W  0.300000  0.100000  0.050000
Mo48  Mo  0.325000  0.125000  0.075000
Mo49  Mo  0.350000  0.100000  0.050000
Ta53  Ta  0.375000  0.125000  0.075000
W57  W  0.400000  0.100000  0.050000
Mo50  Mo  0.425000  0.125000  0.075000
Mo51  Mo  0.450000  0.100000  0.050000
Nb39  Nb  0.475000  0.125000  0.075000
Nb40  Nb  -0.000000  0.150000  0.050000
Mo52  Mo  0.025000  0.175000  0.075000
Ta54  Ta  0.050000  0.150000  0.050000
Nb41  Nb  0.075000  0.175000  0.075000
Mo53  Mo  0.100000  0.150000  0.050000
Nb42  Nb  0.125000  0.175000  0.075000
Ta55  Ta  0.150000  0.150000  0.050000
Nb43  Nb  0.175000  0.175000  0.075000
Mo54  Mo  0.200000  0.150000  0.050000
Nb44  Nb  0.225000  0.175000  0.075000
Mo55  Mo  0.250000  0.150000  0.050000
Mo56  Mo  0.275000  0.175000  0.075000
W58  W  0.300000  0.150000  0.050000
Nb45  Nb  0.325000  0.175000  0.075000
W59  W  0.350000  0.150000  0.050000
Nb46  Nb  0.375000  0.175000  0.075000
Mo57  Mo  0.400000  0.150000  0.050000
W60  W  0.425000  0.175000  0.075000
Mo58  Mo  0.450000  0.150000  0.050000
Mo59  Mo  0.475000  0.175000  0.075000
Ta56  Ta  -0.000000  0.200000  0.050000
Ta57  Ta  0.025000  0.225000  0.075000
W61  W  0.050000  0.200000  0.050000
Nb47  Nb  0.075000  0.225000  0.075000
Nb48  Nb  0.100000  0.200000  0.050000
Ta58  Ta  0.125000  0.225000  0.075000
Nb49  Nb  0.150000  0.200000  0.050000
Nb50  Nb  0.175000  0.225000  0.075000
Nb51  Nb  0.200000  0.200000  0.050000
W62  W  0.225000  0.225000  0.075000
Nb52  Nb  0.250000  0.200000  0.050000
W63  W  0.275000  0.225000  0.075000
W64  W  0.300000  0.200000  0.050000
Nb53  Nb  0.325000  0.225000  0.075000
Nb54  Nb  0.350000  0.200000  0.050000
Nb55  Nb  0.375000  0.225000  0.075000
W65  W  0.400000  0.200000  0.050000
W66  W  0.425000  0.225000  0.075000
Ta59  Ta  0.450000  0.200000  0.050000
Ta60  Ta  0.475000  0.225000  0.075000
Nb56  Nb  -0.000000  0.250000  0.050000
Ta61  Ta  0.025000  0.275000  0.075000
Nb57  Nb  0.050000  0.250000  0.050000
Nb58  Nb  0.075000  0.275000  0.075000
Ta62  Ta  0.100000  0.250000  0.050000
W67  W  0.125000  0.275000  0.075000
Ta63  Ta  0.150000  0.250000  0.050000
Ta64  Ta  0.175000  0.275000  0.075000
Mo60  Mo  0.200000  0.250000  0.050000
Ta65  Ta  0.225000  0.275000  0.075000
Mo61  Mo  0.250000  0.250000  0.050000
W68  W  0.275000  0.275000  0.075000
W69  W  0.300000  0.250000  0.050000
Ta66  Ta  0.325000  0.275000  0.075000
Ta67  Ta  0.350000  0.250000  0.050000
Ta68  Ta  0.375000  0.275000  0.075000
W70  W  0.400000  0.250000  0.050000
Mo62  Mo  0.425000  0.275000  0.075000
Mo63  Mo  0.450000  0.250000  0.050000
Mo64  Mo  0.475000  0.275000  0.075000
Mo65  Mo  -0.000000  0.300000  0.050000
Nb59  Nb  0.025000  0.325000  0.075000
Nb60  Nb  0.050000  0.300000  0.050000
W71  W  0.075000  0.325000  0.075000
Ta69  Ta  0.100000  0.300000  0.050000
W72  W  0.125000  0.325000  0.075000
Ta70  Ta  0.150000  0.300000  0.050000
Ta71  Ta  0.175000  0.325000  0.075000
W73  W  0.200000  0.300000  0.050000
Nb61  Nb  0.225000  0.325000  0.075000
Nb62  Nb  0.250000  0.300000  0.050000
W74  W  0.275000  0.325000  0.075000
Nb63  Nb  0.300000  0.300000  0.050000
W75  W  0.325000  0.325000  0.075000
W76  W  0.350000  0.300000  0.050000
Mo66  Mo  0.375000  0.325000  0.075000
Nb64  Nb  0.400000  0.300000  0.050000
Ta72  Ta  0.425000  0.325000  0.075000
Mo67  Mo  0.450000  0.300000  0.050000
Ta73  Ta  0.475000  0.325000  0.075000
Ta74  Ta  -0.000000 -0.000000  0.100000
Ta75  Ta  0.025000  0.025000  0.125000
Nb65  Nb  0.050000 -0.000000  0.100000
Mo68  Mo  0.075000  0.025000  0.125000
Ta76  Ta  0.100000 -0.000000  0.100000
Mo69  Mo  0.125000  0.025000  0.125000
Nb66  Nb  0.150000 -0.000000  0.100000
Mo70  Mo  0.175000  0.025000  0.125000
Mo71  Mo  0.200000 -0.000000  0.100000
Nb67  Nb  0.225000  0.025000  0.125000
Nb68  Nb  0.250000 -0.000000  0.100000
Mo72  Mo  0.275000  0.025000  0.125000
Nb69  Nb  0.300000 -0.000000  0.100000
Nb70  Nb  0.325000  0.025000  0.125000
Nb71  Nb  0.350000 -0.000000  0.100000
Nb72  Nb  0.375000  0.025000  0.125000
Ta77  Ta  0.400000 -0.000000  0.100000
Ta78  Ta  0.425000  0.025000  0.125000
W77  W  0.450000 -0.000000  0.100000
Ta79  Ta  0.475000  0.025000  0.125000
Ta80  Ta  -0.000000  0.050000  0.100000
W78  W  0.025000  0.075000  0.125000
W79  W  0.050000  0.050000  0.100000
W80  W  0.075000  0.075000  0.125000
W81  W  0.100000  0.050000  0.100000
Ta81  Ta  0.125000  0.075000  0.125000
W82  W  0.150000  0.050000  0.100000
W83  W  0.175000  0.075000  0.125000
Ta82  Ta  0.200000  0.050000  0.100000
Mo73  Mo  0.225000  0.075000  0.125000
W84  W  0.250000  0.050000  0.100000
W85  W  0.275000  0.075000  0.125000
Ta83  Ta  0.300000  0.050000  0.100000
Mo74  Mo  0.325000  0.075000  0.125000
Nb73  Nb  0.350000  0.050000  0.100000
Ta84  Ta  0.375000  0.075000  0.125000
W86  W  0.400000  0.050000  0.100000
Ta85  Ta  0.425000  0.075000  0.125000
W87  W  0.450000  0.050000  0.100000
Mo75  Mo  0.475000  0.075000  0.125000
W88  W  -0.000000  0.100000  0.100000
Nb74  Nb  0.025000  0.125000  0.125000
Ta86  Ta  0.050000  0.100000  0.100000
Ta87  Ta  0.075000  0.125000  0.125000
W89  W  0.100000  0.100000  0.100000
Nb75  Nb  0.125000  0.125000  0.125000
Ta88  Ta  0.150000  0.100000  0.100000
W90  W  0.175000  0.125000  0.125000
Mo76  Mo  0.200000  0.100000  0.100000
Ta89  Ta  0.225000  0.125000  0.125000
Ta90  Ta  0.250000  0.100000  0.100000
Nb76  Nb  0.275000  0.125000  0.125000
Ta91  Ta  0.300000  0.100000  0.100000
Ta92  Ta  0.325000  0.125000  0.125000
Ta93  Ta  0.350000  0.100000  0.100000
W91  W  0.375000  0.125000  0.125000
W92  W  0.400000  0.100000  0.100000
W93  W  0.425000  0.125000  0.125000
W94  W  0.450000  0.100000  0.100000
Mo77  Mo  0.475000  0.125000  0.125000
Ta94  Ta  -0.000000  0.150000  0.100000
Nb77  Nb  0.025000  0.175000  0.125000
Mo78  Mo  0.050000  0.150000  0.100000
Nb78  Nb  0.075000  0.175000  0.125000
Ta95  Ta  0.100000  0.150000  0.100000
W95  W  0.125000  0.175000  0.125000
Mo79  Mo  0.150000  0.150000  0.100000
Nb79  Nb  0.175000  0.175000  0.125000
Ta96  Ta  0.200000  0.150000  0.100000
W96  W  0.225000  0.175000  0.125000
Nb80  Nb  0.250000  0.150000  0.100000
Mo80  Mo  0.275000  0.175000  0.125000
W97  W  0.300000  0.150000  0.100000
Mo81  Mo  0.325000  0.175000  0.125000
Ta97  Ta  0.350000  0.150000  0.100000
W98  W  0.375000  0.175000  0.125000
W99  W  0.400000  0.150000  0.100000
Nb81  Nb  0.425000  0.175000  0.125000
W100  W  0.450000  0.150000  0.100000
W101  W  0.475000  0.175000  0.125000
Mo82  Mo  -0.000000  0.200000  0.100000
Mo83  Mo  0.025000  0.225000  0.125000
Ta98  Ta  0.050000  0.200000  0.100000
Mo84  Mo  0.075000  0.225000  0.125000
Mo85  Mo  0.100000  0.200000  0.100000
W102  W  0.125000  0.225000  0.125000
Mo86  Mo  0.150000  0.200000  0.100000
Ta99  Ta  0.175000  0.225000  0.125000
Mo87  Mo  0.200000  0.200000  0.100000
W103  W  0.225000  0.225000  0.125000
Ta100  Ta  0.250000  0.200000  0.100000
Mo88  Mo  0.275000  0.225000  0.125000
Mo89  Mo  0.300000  0.200000  0.100000
W104  W  0.325000  0.225000  0.125000
Ta101  Ta  0.350000  0.200000  0.100000
W105  W  0.375000  0.225000  0.125000
Nb82  Nb  0.400000  0.200000  0.100000
W106  W  0.425000  0.225000  0.125000
Mo90  Mo  0.450000  0.200000  0.100000
W107  W  0.475000  0.225000  0.125000
Nb83  Nb  -0.000000  0.250000  0.100000
Nb84  Nb  0.025000  0.275000  0.125000
W108  W  0.050000  0.250000  0.100000
Nb85  Nb  0.075000  0.275000  0.125000
W109  W  0.100000  0.250000  0.100000
Ta102  Ta  0.125000  0.275000  0.125000
Nb86  Nb  0.150000  0.250000  0.100000
Mo91  Mo  0.175000  0.275000  0.125000
Mo92  Mo  0.200000  0.250000  0.100000
W110  W  0.225000  0.275000  0.125000
Nb87  Nb  0.250000  0.250000  0.100000
Ta103  Ta  0.275000  0.275000  0.125000
Nb88  Nb  0.300000  0.250000  0.100000
Nb89  Nb  0.325000  0.275000  0.125000
Mo93  Mo  0.350000  0.250000  0.100000
Ta104  Ta  0.375000  0.275000  0.125000
Ta105  Ta  0.400000  0.250000  0.100000
Ta106  Ta  0.425000  0.275000  0.125000
Nb90  Nb  0.450000  0.250000  0.100000
Mo94  Mo  0.475000  0.275000  0.125000
Ta107  Ta  -0.000000  0.300000  0.100000
W111  W  0.025000  0.325000  0.125000
Mo95  Mo  0.050000  0.300000  0.100000
Mo96  Mo  0.075000  0.325000  0.125000
Mo97  Mo  0.100000  0.300000  0.100000
W112  W  0.125000  0.325000  0.125000
Mo98  Mo  0.150000  0.300000  0.100000
Ta108  Ta  0.175000  0.325000  0.125000
W113  W  0.200000  0.300000  0.100000
Ta109  Ta  0.225000  0.325000  0.125000
Nb91  Nb  0.250000  0.300000  0.100000
W114  W  0.275000  0.325000  0.125000
W115  W  0.300000  0.300000  0.100000
Mo99  Mo  0.325000  0.325000  0.125000
Nb92  Nb  0.350000  0.300000  0.100000
W116  W  0.375000  0.325000  0.125000
Ta110  Ta  0.400000  0.300000  0.100000
Nb93  Nb  0.425000  0.325000  0.125000
Nb94  Nb  0.450000  0.300000  0.100000
Mo100  Mo  0.475000  0.325000  0.125000
W117  W  -0.000000 -0.000000  0.150000
W118  W  0.025000  0.025000  0.175000
W119  W  0.050000 -0.000000  0.150000
Ta111  Ta  0.075000  0.025000  0.175000
Nb95  Nb  0.100000 -0.000000  0.150000
W120  W  0.125000  0.025000  0.175000
Mo101  Mo  0.150000 -0.000000  0.150000
Nb96  Nb  0.175000  0.025000  0.175000
Nb97  Nb  0.200000 -0.000000  0.150000
Ta112  Ta  0.225000  0.025000  0.175000
Mo102  Mo  0.250000 -0.000000  0.150000
Nb98  Nb  0.275000  0.025000  0.175000
W121  W  0.300000 -0.000000  0.150000
Ta113  Ta  0.325000  0.025000  0.175000
Mo103  Mo  0.350000 -0.000000  0.150000
Ta114  Ta  0.375000  0.025000  0.175000
Ta115  Ta  0.400000 -0.000000  0.150000
Mo104  Mo  0.425000  0.025000  0.175000
Mo105  Mo  0.450000 -0.000000  0.150000
Mo106  Mo  0.475000  0.025000  0.175000
Mo107  Mo  -0.000000  0.050000  0.150000
Nb99  Nb  0.025000  0.075000  0.175000
Ta116  Ta  0.050000  0.050000  0.150000
Mo108  Mo  0.075000  0.075000  0.175000
W122  W  0.100000  0.050000  0.150000
Mo109  Mo  0.125000  0.075000  0.175000
Nb100  Nb  0.150000  0.050000  0.150000
W123  W  0.175000  0.075000  0.175000
Ta117  Ta  0.200000  0.050000  0.150000
W124  W  0.225000  0.075000  0.175000
Ta118  Ta  0.250000  0.050000  0.150000
Ta119  Ta  0.275000  0.075000  0.175000
Ta120  Ta  0.300000  0.050000  0.150000
Nb101  Nb  0.325000  0.075000  0.175000
Nb102  Nb  0.350000  0.050000  0.150000
Ta121  Ta  0.375000  0.075000  0.175000
Nb103  Nb  0.400000  0.050000  0.150000
Nb104  Nb  0.425000  0.075000  0.175000
Mo110  Mo  0.450000  0.050000  0.150000
Nb105  Nb  0.475000  0.075000  0.175000
Nb106  Nb  -0.000000  0.100000  0.150000
Nb107  Nb  0.025000  0.125000  0.175000
Nb108  Nb  0.050000  0.100000  0.150000
Mo111  Mo  0.075000  0.125000  0.175000
Mo112  Mo  0.100000  0.100000  0.150000
W125  W  0.125000  0.125000  0.175000
Ta122  Ta  0.150000  0.100000  0.150000
Nb109  Nb  0.175000  0.125000  0.175000
Ta123  Ta  0.200000  0.100000  0.150000
W126  W  0.225000  0.125000  0.175000
Ta124  Ta  0.250000  0.100000  0.150000
Mo113  Mo  0.275000  0.125000  0.175000
Mo114  Mo  0.300000  0.100000  0.150000
Mo115  Mo  0.325000  0.125000  0.175000
Nb110  Nb  0.350000  0.100000  0.150000
Mo116  Mo  0.375000  0.125000  0.175000
Mo117  Mo  0.400000  0.100000  0.150000
Mo118  Mo  0.425000  0.125000  0.175000
Nb111  Nb  0.450000  0.100000  0.150000
Mo119  Mo  0.475000  0.125000  0.175000
Nb112  Nb  -0.000000  0.150000  0.150000
Ta125  Ta  0.025000  0.175000  0.175000
W127  W  0.050000  0.150000  0.150000
Mo120  Mo  0.075000  0.175000  0.175000
Mo121  Mo  0.100000  0.150000  0.150000
Ta126  Ta  0.125000  0.175000  0.175000
W128  W  0.150000  0.150000  0.150000
Mo122  Mo  0.175000  0.175000  0.175000
W129  W  0.200000  0.150000  0.150000
W130  W  0.225000  0.175000  0.175000
W131  W  0.250000  0.150000  0.150000
Mo123  Mo  0.275000  0.175000  0.175000
Mo124  Mo  0.300000  0.150000  0.150000
Mo125  Mo  0.325000  0.175000  0.175000
W132  W  0.350000  0.150000  0.150000
Nb113  Nb  0.375000  0.175000  0.175000
W133  W  0.400000  0.150000  0.150000
Nb114  Nb  0.425000  0.175000  0.175000
W134  W  0.450000  0.150000  0.150000
Nb115  Nb  0.475000  0.175000  0.175000
Nb116  Nb  -0.000000  0.200000  0.150000
Nb117  Nb  0.025000  0.225000  0.175000
W135  W  0.050000  0.200000  0.150000
Mo126  Mo  0.075000  0.225000  0.175000
Mo127  Mo  0.100000  0.200000  0.150000
Mo128  Mo  0.125000  0.225000  0.175000
W136  W  0.150000  0.200000  0.150000
Nb118  Nb  0.175000  0.225000  0.175000
Nb119  Nb  0.200000  0.200000  0.150000
Ta127  Ta  0.225000  0.225000  0.175000
Mo129  Mo  0.250000  0.200000  0.150000
W137  W  0.275000  0.225000  0.175000
Nb120  Nb  0.300000  0.200000  0.150000
Mo130  Mo  0.325000  0.225000  0.175000
Mo131  Mo  0.350000  0.200000  0.150000
W138  W  0.375000  0.225000  0.175000
Nb121  Nb  0.400000  0.200000  0.150000
Ta128  Ta  0.425000  0.225000  0.175000
Nb122  Nb  0.450000  0.200000  0.150000
Mo132  Mo  0.475000  0.225000  0.175000
Ta129  Ta  -0.000000  0.250000  0.150000
Ta130  Ta  0.025000  0.275000  0.175000
Mo133  Mo  0.050000  0.250000  0.150000
Ta131  Ta  0.075000  0.275000  0.175000
Nb123  Nb  0.100000  0.250000  0.150000
Nb124  Nb  0.125000  0.275000  0.175000
W139  W  0.150000  0.250000  0.150000
Mo134  Mo  0.175000  0.275000  0.175000
Nb125  Nb  0.200000  0.250000  0.150000
W140  W  0.225000  0.275000  0.175000
W141  W  0.250000  0.250000  0.150000
Ta132  Ta  0.275000  0.275000  0.175000
Ta133  Ta  0.300000  0.250000  0.150000
Ta134  Ta  0.325000  0.275000  0.175000
W142  W  0.350000  0.250000  0.150000
Mo135  Mo  0.375000  0.275000  0.175000
Mo136  Mo  0.400000  0.250000  0.150000
Ta135  Ta  0.425000  0.275000  0.175000
Ta136  Ta  0.450000  0.250000  0.150000
W143  W  0.475000  0.275000  0.175000
Mo137  Mo  -0.000000  0.300000  0.150000
Mo138  Mo  0.025000  0.325000  0.175000
Mo139  Mo  0.050000  0.300000  0.150000
Mo140  Mo  0.075000  0.325000  0.175000
W144  W  0.100000  0.300000  0.150000
Nb126  Nb  0.125000  0.325000  0.175000
Mo141  Mo  0.150000  0.300000  0.150000
W145  W  0.175000  0.325000  0.175000
Nb127  Nb  0.200000  0.300000  0.150000
Ta137  Ta  0.225000  0.325000  0.175000
Mo142  Mo  0.250000  0.300000  0.150000
Nb128  Nb  0.275000  0.325000  0.175000
W146  W  0.300000  0.300000  0.150000
W147  W  0.325000  0.325000  0.175000
Mo143  Mo  0.350000  0.300000  0.150000
Mo144  Mo  0.375000  0.325000  0.175000
Ta138  Ta  0.400000  0.300000  0.150000
W148  W  0.425000  0.325000  0.175000
Nb129  Nb  0.450000  0.300000  0.150000
Mo145  Mo  0.475000  0.325000  0.175000
Nb130  Nb  -0.000000 -0.000000  0.200000
Mo146  Mo  0.025000  0.025000  0.225000
Mo147  Mo  0.050000 -0.000000  0.200000
Ta139  Ta  0.075000  0.025000  0.225000
Mo148  Mo  0.100000 -0.000000  0.200000
Mo149  Mo  0.125000  0.025000  0.225000
Nb131  Nb  0.150000 -0.000000  0.200000
Mo150  Mo  0.175000  0.025000  0.225000
W149  W  0.200000 -0.000000  0.200000
Nb132  Nb  0.225000  0.025000  0.225000
Ta140  Ta  0.250000 -0.000000  0.200000
Nb133  Nb  0.275000  0.025000  0.225000
Ta141  Ta  0.300000 -0.000000  0.200000
Mo151  Mo  0.325000  0.025000  0.225000
Mo152  Mo  0.350000 -0.000000  0.200000
W150  W  0.375000  0.025000  0.225000
Ta142  Ta  0.400000 -0.000000  0.200000
W151  W  0.425000  0.025000  0.225000
W152  W  0.450000 -0.000000  0.200000
W153  W  0.475000  0.025000  0.225000
Ta143  Ta  -0.000000  0.050000  0.200000
Mo153  Mo  0.025000  0.075000  0.225000
Nb134  Nb  0.050000  0.050000  0.200000
Nb135  Nb  0.075000  0.075000  0.225000
W154  W  0.100000  0.050000  0.200000
Ta144  Ta  0.125000  0.075000  0.225000
W155  W  0.150000  0.050000  0.200000
Mo154  Mo  0.175000  0.075000  0.225000
W156  W  0.200000  0.050000  0.200000
W157  W  0.225000  0.075000  0.225000
W158  W  0.250000  0.050000  0.200000
Mo155  Mo  0.275000  0.075000  0.225000
Nb136  Nb  0.300000  0.050000  0.200000
Mo156  Mo  0.325000  0.075000  0.225000
Mo157  Mo  0.350000  0.050000  0.200000
Mo158  Mo  0.375000  0.075000  0.225000
W159  W  0.400000  0.050000  0.200000
Mo159  Mo  0.425000  0.075000  0.225000
Nb137  Nb  0.450000  0.050000  0.200000
Nb138  Nb  0.475000  0.075000  0.225000
Nb139  Nb  -0.000000  0.100000  0.200000
W160  W  0.025000  0.125000  0.225000
W161  W  0.050000  0.100000  0.200000
W162  W  0.075000  0.125000  0.225000
Ta145  Ta  0.100000  0.100000  0.200000
Mo160  Mo  0.125000  0.125000  0.225000
Nb140  Nb  0.150000  0.100000  0.200000
Mo161  Mo  0.175000  0.125000  0.225000
Ta146  Ta  0.200000  0.100000  0.200000
Nb141  Nb  0.225000  0.125000  0.225000
Mo162  Mo  0.250000  0.100000  0.200000
W163  W  0.275000  0.125000  0.225000
Mo163  Mo  0.300000  0.100000  0.200000
Mo164  Mo  0.325000  0.125000  0.225000
Ta147  Ta  0.350000  0.100000  0.200000
Ta148  Ta  0.375000  0.125000  0.225000
W164  W  0.400000  0.100000  0.200000
Nb142  Nb  0.425000  0.125000  0.225000
Nb143  Nb  0.450000  0.100000  0.200000
W165  W  0.475000  0.125000  0.225000
Ta149  Ta  -0.000000  0.150000  0.200000
Nb144  Nb  0.025000  0.175000  0.225000
Mo165  Mo  0.050000  0.150000  0.200000
Nb145  Nb  0.075000  0.175000  0.225000
Nb146  Nb  0.100000  0.150000  0.200000
Mo166  Mo  0.125000  0.175000  0.225000
Nb147  Nb  0.150000  0.150000  0.200000
Nb148  Nb  0.175000  0.175000  0.225000
Nb149  Nb  0.200000  0.150000  0.200000
Mo167  Mo  0.225000  0.175000  0.225000
Mo168  Mo  0.250000  0.150000  0.200000
Mo169  Mo  0.275000  0.175000  0.225000
Mo170  Mo  0.300000  0.150000  0.200000
W166  W  0.325000  0.175000  0.225000
Ta150  Ta  0.350000  0.150000  0.200000
W167  W  0.375000  0.175000  0.225000
Nb150  Nb  0.400000  0.150000  0.200000
W168  W  0.425000  0.175000  0.225000
W169  W  0.450000  0.150000  0.200000
Nb151  Nb  0.475000  0.175000  0.225000
W170  W  -0.000000  0.200000  0.200000
Mo171  Mo  0.025000  0.225000  0.225000
Ta151  Ta  0.050000  0.200000  0.200000
Mo172  Mo  0.075000  0.225000  0.225000
W171  W  0.100000  0.200000  0.200000
Mo173  Mo  0.125000  0.225000  0.225000
Mo174  Mo  0.150000  0.200000  0.200000
Ta152  Ta  0.175000  0.225000  0.225000
W172  W  0.200000  0.200000  0.200000
W173  W  0.225000  0.225000  0.225000
Ta153  Ta  0.250000  0.200000  0.200000
Mo175  Mo  0.275000  0.225000  0.225000
Mo176  Mo  0.300000  0.200000  0.200000
W174  W  0.325000  0.225000  0.225000
Mo177  Mo  0.350000  0.200000  0.200000
W175  W  0.375000  0.225000  0.225000
Ta154  Ta  0.400000  0.200000  0.200000
Nb152  Nb  0.425000  0.225000  0.225000
W176  W  0.450000  0.200000  0.200000
Ta155  Ta  0.475000  0.225000  0.225000
Ta156  Ta  -0.000000  0.250000  0.200000
Nb153  Nb  0.025000  0.275000  0.225000
Ta157  Ta  0.050000  0.250000  0.200000
Ta158  Ta  0.075000  0.275000  0.225000
W177  W  0.100000  0.250000  0.200000
Ta159  Ta  0.125000  0.275000  0.225000
Mo178  Mo  0.150000  0.250000  0.200000
W178  W  0.175000  0.275000  0.225000
W179  W  0.200000  0.250000  0.200000
Mo179  Mo  0.225000  0.275000  0.225000
Nb154  Nb  0.250000  0.250000  0.200000
W180  W  0.275000  0.275000  0.225000
Ta160  Ta  0.300000  0.250000  0.200000
Nb155  Nb  0.325000  0.275000  0.225000
Nb156  Nb  0.350000  0.250000  0.200000
W181  W  0.375000  0.275000  0.225000
Ta161  Ta  0.400000  0.250000  0.200000
W182  W  0.425000  0.275000  0.225000
Nb157  Nb  0.450000  0.250000  0.200000
W183  W  0.475000  0.275000  0.225000
Ta162  Ta  -0.000000  0.300000  0.200000
Ta163  Ta  0.025000  0.325000  0.225000
Ta164  Ta  0.050000  0.300000  0.200000
Mo180  Mo  0.075000  0.325000  0.225000
W184  W  0.100000  0.300000  0.200000
Nb158  Nb  0.125000  0.325000  0.225000
W185  W  0.150000  0.300000  0.200000
W186  W  0.175000  0.325000  0.225000
W187  W  0.200000  0.300000  0.200000
Mo181  Mo  0.225000  0.325000  0.225000
Nb159  Nb  0.250000  0.300000  0.200000
W188  W  0.275000  0.325000  0.225000
Nb160  Nb  0.300000  0.300000  0.200000
Ta165  Ta  0.325000  0.325000  0.225000
Nb161  Nb  0.350000  0.300000  0.200000
W189  W  0.375000  0.325000  0.225000
Mo182  Mo  0.400000  0.300000  0.200000
Nb162  Nb  0.425000  0.325000  0.225000
W190  W  0.450000  0.300000  0.200000
W191  W  0.475000  0.325000  0.225000
W192  W  -0.000000 -0.000000  0.250000
Ta166  Ta  0.025000  0.025000  0.275000
Mo183  Mo  0.050000 -0.000000  0.250000
W193  W  0.075000  0.025000  0.275000
Nb163  Nb  0.100000 -0.000000  0.250000
Ta167  Ta  0.125000  0.025000  0.275000
Ta168  Ta  0.150000 -0.000000  0.250000
W194  W  0.175000  0.025000  0.275000
Nb164  Nb  0.200000 -0.000000  0.250000
Mo184  Mo  0.225000  0.025000  0.275000
Mo185  Mo  0.250000 -0.000000  0.250000
Mo186  Mo  0.275000  0.025000  0.275000
Nb165  Nb  0.300000 -0.000000  0.250000
W195  W  0.325000  0.025000  0.275000
Nb166  Nb  0.350000 -0.000000  0.250000
Ta169  Ta  0.375000  0.025000  0.275000
Nb167  Nb  0.400000 -0.000000  0.250000
Mo187  Mo  0.425000  0.025000  0.275000
Ta170  Ta  0.450000 -0.000000  0.250000
Ta171  Ta  0.475000  0.025000  0.275000
W196  W  -0.000000  0.050000  0.250000
W197  W  0.025000  0.075000  0.275000
W198  W  0.050000  0.050000  0.250000
Ta172  Ta  0.075000  0.075000  0.275000
Mo188  Mo  0.100000  0.050000  0.250000
W199  W  0.125000  0.075000  0.275000
Mo189  Mo  0.150000  0.050000  0.250000
Nb168  Nb  0.175000  0.075000  0.275000
Mo190  Mo  0.200000  0.050000  0.250000
Mo191  Mo  0.225000  0.075000  0.275000
Ta173  Ta  0.250000  0.050000  0.250000
Nb169  Nb  0.275000  0.075000  0.275000
Nb170  Nb  0.300000  0.050000  0.250000
W200  W  0.325000  0.075000  0.275000
Mo192  Mo  0.350000  0.050000  0.250000
Nb171  Nb  0.375000  0.075000  0.275000
Ta174  Ta  0.400000  0.050000  0.250000
Mo193  Mo  0.425000  0.075000  0.275000
W201  W  0.450000  0.050000  0.250000
Nb172  Nb  0.475000  0.075000  0.275000
W202  W  -0.000000  0.100000  0.250000
W203  W  0.025000  0.125000  0.275000
Nb173  Nb  0.050000  0.100000  0.250000
Mo194  Mo  0.075000  0.125000  0.275000
Ta175  Ta  0.100000  0.100000  0.250000
Ta176  Ta  0.125000  0.125000  0.275000
W204  W  0.150000  0.100000  0.250000
Ta177  Ta  0.175000  0.125000  0.275000
Nb174  Nb  0.200000  0.100000  0.250000
Ta178  Ta  0.225000  0.125000  0.275000
W205  W  0.250000  0.100000  0.250000
W206  W  0.275000  0.125000  0.275000
Mo195  Mo  0.300000  0.100000  0.250000
Ta179  Ta  0.325000  0.125000  0.275000
W207  W  0.350000  0.100000  0.250000
W208  W  0.375000  0.125000  0.275000
Mo196  Mo  0.400000  0.100000  0.250000
Ta180  Ta  0.425000  0.125000  0.275000
Mo197  Mo  0.450000  0.100000  0.250000
Mo198  Mo  0.475000  0.125000  0.275000
W209  W  -0.000000  0.150000  0.250000
W210  W  0.025000  0.175000  0.275000
Mo199  Mo  0.050000  0.150000  0.250000
Mo200  Mo  0.075000  0.175000  0.275000
W211  W  0.100000  0.150000  0.250000
W212  W  0.125000  0.175000  0.275000
Nb175  Nb  0.150000  0.150000  0.250000
Mo201  Mo  0.175000  0.175000  0.275000
W213  W  0.200000  0.150000  0.250000
Ta181  Ta  0.225000  0.175000  0.275000
W214  W  0.250000  0.150000  0.250000
Mo202  Mo  0.275000  0.175000  0.275000
Ta182  Ta  0.300000  0.150000  0.250000
Nb176  Nb  0.325000  0.175000  0.275000
W215  W  0.350000  0.150000  0.250000
Nb177  Nb  0.375000  0.175000  0.275000
Mo203  Mo  0.400000  0.150000  0.250000
Mo204  Mo  0.425000  0.175000  0.275000
W216  W  0.450000  0.150000  0.250000
Nb178  Nb  0.475000  0.175000  0.275000
Ta183  Ta  -0.000000  0.200000  0.250000
Mo205  Mo  0.025000  0.225000  0.275000
Mo206  Mo  0.050000  0.200000  0.250000
Mo207  Mo  0.075000  0.225000  0.275000
W217  W  0.100000  0.200000  0.250000
Ta184  Ta  0.125000  0.225000  0.275000
Nb179  Nb  0.150000  0.200000  0.250000
Nb180  Nb  0.175000  0.225000  0.275000
Ta185  Ta  0.200000  0.200000  0.250000
Ta186  Ta  0.225000  0.225000  0.275000
W218  W  0.250000  0.200000  0.250000
W219  W  0.275000  0.225000  0.275000
Mo208  Mo  0.300000  0.200000  0.250000
Nb181  Nb  0.325000  0.225000  0.275000
Ta187  Ta  0.350000  0.200000  0.250000
Ta188  Ta  0.375000  0.225000  0.275000
Nb182  Nb  0.400000  0.200000  0.250000
Ta189  Ta  0.425000  0.225000  0.275000
Nb183  Nb  0.450000  0.200000  0.250000
W220  W  0.475000  0.225000  0.275000
Nb184  Nb  -0.000000  0.250000  0.250000
Ta190  Ta  0.025000  0.275000  0.275000
Nb185  Nb  0.050000  0.250000  0.250000
W221  W  0.075000  0.275000  0.275000
Nb186  Nb  0.100000  0.250000  0.250000
Nb187  Nb  0.125000  0.275000  0.275000
W222  W  0.150000  0.250000  0.250000
Mo209  Mo  0.175000  0.275000  0.275000
W223  W  0.200000  0.250000  0.250000
Ta191  Ta  0.225000  0.275000  0.275000
W224  W  0.250000  0.250000  0.250000
W225  W  0.275000  0.275000  0.275000
W226  W  0.300000  0.250000  0.250000
Ta192  Ta  0.325000  0.275000  0.275000
Ta193  Ta  0.350000  0.250000  0.250000
Nb188  Nb  0.375000  0.275000  0.275000
Ta194  Ta  0.400000  0.250000  0.250000
W227  W  0.425000  0.275000  0.275000
Ta195  Ta  0.450000  0.250000  0.250000
Ta196  Ta  0.475000  0.275000  0.275000
W228  W  -0.000000  0.300000  0.250000
Nb189  Nb  0.025000  0.325000  0.275000
W229  W  0.050000  0.300000  0.250000
W230  W  0.075000  0.325000  0.275000
Mo210  Mo  0.100000  0.300000  0.250000
Ta197  Ta  0.125000  0.325000  0.275000
Ta198  Ta  0.150000  0.300000  0.250000
Ta199  Ta  0.175000  0.325000  0.275000
W231  W  0.200000  0.300000  0.250000
W232  W  0.225000  0.325000  0.275000
Mo211  Mo  0.250000  0.300000  0.250000
W233  W  0.275000  0.325000  0.275000
W234  W  0.300000  0.300000  0.250000
Ta200  Ta  0.325000  0.325000  0.275000
Mo212  Mo  0.350000  0.300000  0.250000
Mo213  Mo  0.375000  0.325000  0.275000
Ta201  Ta  0.400000  0.300000  0.250000
Ta202  Ta  0.425000  0.325000  0.275000
Ta203  Ta  0.450000  0.300000  0.250000
Ta204  Ta  0.475000  0.325000  0.275000
W235  W  -0.000000 -0.000000  0.300000
Mo214  Mo  0.025000  0.025000  0.325000
W236  W  0.050000 -0.000000  0.300000
W237  W  0.075000  0.025000  0.325000
Nb190  Nb  0.100000 -0.000000  0.300000
Ta205  Ta  0.125000  0.025000  0.325000
Ta206  Ta  0.150000 -0.000000  0.300000
Nb191  Nb  0.175000  0.025000  0.325000
Ta207  Ta  0.200000 -0.000000  0.300000
Ta208  Ta  0.225000  0.025000  0.325000
Nb192  Nb  0.250000 -0.000000  0.300000
W238  W  0.275000  0.025000  0.325000
Nb193  Nb  0.300000 -0.000000  0.300000
Ta209  Ta  0.325000  0.025000  0.325000
Mo215  Mo  0.350000 -0.000000  0.300000
Nb194  Nb  0.375000  0.025000  0.325000
Mo216  Mo  0.400000 -0.000000  0.300000
W239  W  0.425000  0.025000  0.325000
Ta210  Ta  0.450000 -0.000000  0.300000
W240  W  0.475000  0.025000  0.325000
Ta211  Ta  -0.000000  0.050000  0.300000
W241  W  0.025000  0.075000  0.325000
W242  W  0.050000  0.050000  0.300000
Mo217  Mo  0.075000  0.075000  0.325000
Mo218  Mo  0.100000  0.050000  0.300000
Mo219  Mo  0.125000  0.075000  0.325000
Ta212  Ta  0.150000  0.050000  0.300000
Mo220  Mo  0.175000  0.075000  0.325000
Nb195  Nb  0.200000  0.050000  0.300000
Nb196  Nb  0.225000  0.075000  0.325000
Ta213  Ta  0.250000  0.050000  0.300000
Ta214  Ta  0.275000  0.075000  0.325000
Mo221  Mo  0.300000  0.050000  0.300000
W243  W  0.325000  0.075000  0.325000
Ta215  Ta  0.350000  0.050000  0.300000
W244  W  0.375000  0.075000  0.325000
Ta216  Ta  0.400000  0.050000  0.300000
Nb197  Nb  0.425000  0.075000  0.325000
W245  W  0.450000  0.050000  0.300000
Mo222  Mo  0.475000  0.075000  0.325000
Nb198  Nb  -0.000000  0.100000  0.300000
Mo223  Mo  0.025000  0.125000  0.325000
Mo224  Mo  0.050000  0.100000  0.300000
Mo225  Mo  0.075000  0.125000  0.325000
Nb199  Nb  0.100000  0.100000  0.300000
Mo226  Mo  0.125000  0.125000  0.325000
Nb200  Nb  0.150000  0.100000  0.300000
Mo227  Mo  0.175000  0.125000  0.325000
W246  W  0.200000  0.100000  0.300000
Mo228  Mo  0.225000  0.125000  0.325000
Nb201  Nb  0.250000  0.100000  0.300000
Mo229  Mo  0.275000  0.125000  0.325000
Mo230  Mo  0.300000  0.100000  0.300000
W247  W  0.325000  0.125000  0.325000
Ta217  Ta  0.350000  0.100000  0.300000
Ta218  Ta  0.375000  0.125000  0.325000
Ta219  Ta  0.400000  0.100000  0.300000
Nb202  Nb  0.425000  0.125000  0.325000
Nb203  Nb  0.450000  0.100000  0.300000
Nb204  Nb  0.475000  0.125000  0.325000
Mo231  Mo  -0.000000  0.150000  0.300000
Nb205  Nb  0.025000  0.175000  0.325000
Mo232  Mo  0.050000  0.150000  0.300000
W248  W  0.075000  0.175000  0.325000
Nb206  Nb  0.100000  0.150000  0.300000
W249  W  0.125000  0.175000  0.325000
Nb207  Nb  0.150000  0.150000  0.300000
Ta220  Ta  0.175000  0.175000  0.325000
W250  W  0.200000  0.150000  0.300000
Nb208  Nb  0.225000  0.175000  0.325000
Nb209  Nb  0.250000  0.150000  0.300000
Nb210  Nb  0.275000  0.175000  0.325000
Mo233  Mo  0.300000  0.150000  0.300000
W251  W  0.325000  0.175000  0.325000
W252  W  0.350000  0.150000  0.300000
Ta221  Ta  0.375000  0.175000  0.325000
W253  W  0.400000  0.150000  0.300000
Nb211  Nb  0.425000  0.175000  0.325000
Nb212  Nb  0.450000  0.150000  0.300000
Mo234  Mo  0.475000  0.175000  0.325000
Ta222  Ta  -0.000000  0.200000  0.300000
Ta223  Ta  0.025000  0.225000  0.325000
Ta224  Ta  0.050000  0.200000  0.300000
Mo235  Mo  0.075000  0.225000  0.325000
Nb213  Nb  0.100000  0.200000  0.300000
Mo236  Mo  0.125000  0.225000  0.325000
Ta225  Ta  0.150000  0.200000  0.300000
Ta226  Ta  0.175000  0.225000  0.325000
Mo237  Mo  0.200000  0.200000  0.300000
W254  W  0.225000  0.225000  0.325000
Ta227  Ta  0.250000  0.200000  0.300000
Nb214  Nb  0.275000  0.225000  0.325000
Mo238  Mo  0.300000  0.200000  0.300000
Nb215  Nb  0.325000  0.225000  0.325000
Nb216  Nb  0.350000  0.200000  0.300000
Nb217  Nb  0.375000  0.225000  0.325000
Ta228  Ta  0.400000  0.200000  0.300000
Nb218  Nb  0.425000  0.225000  0.325000
Mo239  Mo  0.450000  0.200000  0.300000
Nb219  Nb  0.475000  0.225000  0.325000
Ta229  Ta  -0.000000  0.250000  0.300000
Nb220  Nb  0.025000  0.275000  0.325000
W255  W  0.050000  0.250000  0.300000
Ta230  Ta  0.075000  0.275000  0.325000
Mo240  Mo  0.100000  0.250000  0.300000
W256  W  0.125000  0.275000  0.325000
Ta231  Ta  0.150000  0.250000  0.300000
Ta232  Ta  0.175000  0.275000  0.325000
Nb221  Nb  0.200000  0.250000  0.300000
W257  W  0.225000  0.275000  0.325000
W258  W  0.250000  0.250000  0.300000
Mo241  Mo  0.275000  0.275000  0.325000
Mo242  Mo  0.300000  0.250000  0.300000
Mo243  Mo  0.325000  0.275000  0.325000
W259  W  0.350000  0.250000  0.300000
W260  W  0.375000  0.275000  0.325000
W261  W  0.400000  0.250000  0.300000
W262  W  0.425000  0.275000  0.325000
Nb222  Nb  0.450000  0.250000  0.300000
Nb223  Nb  0.475000  0.275000  0.325000
W263  W  -0.000000  0.300000  0.300000
Ta233  Ta  0.025000  0.325000  0.325000
Mo244  Mo  0.050000  0.300000  0.300000
Ta234  Ta  0.075000  0.325000  0.325000
W264  W  0.100000  0.300000  0.300000
W265  W  0.125000  0.325000  0.325000
Mo245  Mo  0.150000  0.300000  0.300000
Ta235  Ta  0.175000  0.325000  0.325000
Mo246  Mo  0.200000  0.300000  0.300000
Mo247  Mo  0.225000  0.325000  0.325000
Mo248  Mo  0.250000  0.300000  0.300000
W266  W  0.275000  0.325000  0.325000
Ta236  Ta  0.300000  0.300000  0.300000
Ta237  Ta  0.325000  0.325000  0.325000
W267  W  0.350000  0.300000  0.300000
W268  W  0.375000  0.325000  0.325000
Nb224  Nb  0.400000  0.300000  0.300000
W269  W  0.425000  0.325000  0.325000
Ta238  Ta  0.450000  0.300000  0.300000
Ta239  Ta  0.475000  0.325000  0.325000
Mo249  Mo  -0.000000 -0.000000  0.350000
Nb225  Nb  0.025000  0.025000  0.375000
Nb226  Nb  0.050000 -0.000000  0.350000
Nb227  Nb  0.075000  0.025000  0.375000
Nb228  Nb  0.100000 -0.000000  0.350000
Mo250  Mo  0.125000  0.025000  0.375000
Ta240  Ta  0.150000 -0.000000  0.350000
Mo251  Mo  0.175000  0.025000  0.375000
Ta241  Ta  0.200000 -0.000000  0.350000
Ta242  Ta  0.225000  0.025000  0.375000
Ta243  Ta  0.250000 -0.000000  0.350000
Mo252  Mo  0.275000  0.025000  0.375000
Mo253  Mo  0.300000 -0.000000  0.350000
Mo254  Mo  0.325000  0.025000  0.375000
Mo255  Mo  0.350000 -0.000000  0.350000
W270  W  0.375000  0.025000  0.375000
Mo256  Mo  0.400000 -0.000000  0.350000
Nb229  Nb  0.425000  0.025000  0.375000
Mo257  Mo  0.450000 -0.000000  0.350000
W271  W  0.475000  0.025000  0.375000
Mo258  Mo  -0.000000  0.050000  0.350000
Nb230  Nb  0.025000  0.075000  0.375000
W272  W  0.050000  0.050000  0.350000
Nb231  Nb  0.075000  0.075000  0.375000
Nb232  Nb  0.100000  0.050000  0.350000
Nb233  Nb  0.125000  0.075000  0.375000
Nb234  Nb  0.150000  0.050000  0.350000
Nb235  Nb  0.175000  0.075000  0.375000
W273  W  0.200000  0.050000  0.350000
Mo259  Mo  0.225000  0.075000  0.375000
Ta244  Ta  0.250000  0.050000  0.350000
W274  W  0.275000  0.075000  0.375000
Mo260  Mo  0.300000  0.050000  0.350000
Nb236  Nb  0.325000  0.075000  0.375000
W275  W  0.350000  0.050000  0.350000
Nb237  Nb  0.375000  0.075000  0.375000
Ta245  Ta  0.400000  0.050000  0.350000
Nb238  Nb  0.425000  0.075000  0.375000
Ta246  Ta  0.450000  0.050000  0.350000
Ta247  Ta  0.475000  0.075000  0.375000
Nb239  Nb  -0.000000  0.100000  0.350000
W276  W  0.025000  0.125000  0.375000
W277  W  0.050000  0.100000  0.350000
W278  W  0.075000  0.125000  0.375000
Ta248  Ta  0.100000  0.100000  0.350000
W279  W  0.125000  0.125000  0.375000
Nb240  Nb  0.150000  0.100000  0.350000
Mo261  Mo  0.175000  0.125000  0.375000
W280  W  0.200000  0.100000  0.350000
Ta249  Ta  0.225000  0.125000  0.375000
Ta250  Ta  0.250000  0.100000  0.350000
Ta251  Ta  0.275000  0.125000  0.375000
Ta252  Ta  0.300000  0.100000  0.350000
Mo262  Mo  0.325000  0.125000  0.375000
Ta253  Ta  0.350000  0.100000  0.350000
Mo263  Mo  0.375000  0.125000  0.375000
Nb241  Nb  0.400000  0.100000  0.350000
Mo264  Mo  0.425000  0.125000  0.375000
Mo265  Mo  0.450000  0.100000  0.350000
W281  W  0.475000  0.125000  0.375000
W282  W  -0.000000  0.150000  0.350000
Ta254  Ta  0.025000  0.175000  0.375000
Mo266  Mo  0.050000  0.150000  0.350000
Nb242  Nb  0.075000  0.175000  0.375000
Nb243  Nb  0.100000  0.150000  0.350000
W283  W  0.125000  0.175000  0.375000
Nb244  Nb  0.150000  0.150000  0.350000
Mo267  Mo  0.175000  0.175000  0.375000
Nb245  Nb  0.200000  0.150000  0.350000
Ta255  Ta  0.225000  0.175000  0.375000
Mo268  Mo  0.250000  0.150000  0.350000
Ta256  Ta  0.275000  0.175000  0.375000
W284  W  0.300000  0.150000  0.350000
W285  W  0.325000  0.175000  0.375000
Nb246  Nb  0.350000  0.150000  0.350000
Ta257  Ta  0.375000  0.175000  0.375000
Mo269  Mo  0.400000  0.150000  0.350000
W286  W  0.425000  0.175000  0.375000
Nb247  Nb  0.450000  0.150000  0.350000
W287  W  0.475000  0.175000  0.375000
W288  W  -0.000000  0.200000  0.350000
Nb248  Nb  0.025000  0.225000  0.375000
Mo270  Mo  0.050000  0.200000  0.350000
Ta258  Ta  0.075000  0.225000  0.375000
W289  W  0.100000  0.200000  0.350000
Mo271  Mo  0.125000  0.225000  0.375000
Ta259  Ta  0.150000  0.200000  0.350000
W290  W  0.175000  0.225000  0.375000
Nb249  Nb  0.200000  0.200000  0.350000
Ta260  Ta  0.225000  0.225000  0.375000
W291  W  0.250000  0.200000  0.350000
W292  W  0.275000  0.225000  0.375000
Ta261  Ta  0.300000  0.200000  0.350000
Ta262  Ta  0.325000  0.225000  0.375000
Mo272  Mo  0.350000  0.200000  0.350000
Nb250  Nb  0.375000  0.225000  0.375000
Ta263  Ta  0.400000  0.200000  0.350000
Nb251  Nb  0.425000  0.225000  0.375000
W293  W  0.450000  0.200000  0.350000
W294  W  0.475000  0.225000  0.375000
W295  W  -0.000000  0.250000  0.350000
Ta264  Ta  0.025000  0.275000  0.375000
Mo273  Mo  0.050000  0.250000  0.350000
Mo274  Mo  0.075000  0.275000  0.375000
Ta265  Ta  0.100000  0.250000  0.350000
Mo275  Mo  0.125000  0.275000  0.375000
Ta266  Ta  0.150000  0.250000  0.350000
Nb252  Nb  0.175000  0.275000  0.375000
Ta267  Ta  0.200000  0.250000  0.350000
Ta268  Ta  0.225000  0.275000  0.375000
Ta269  Ta  0.250000  0.250000  0.350000
Nb253  Nb  0.275000  0.275000  0.375000
Nb254  Nb  0.300000  0.250000  0.350000
Mo276  Mo  0.325000  0.275000  0.375000
Nb255  Nb  0.350000  0.250000  0.350000
Mo277  Mo  0.375000  0.275000  0.375000
Nb256  Nb  0.400000  0.250000  0.350000
Mo278  Mo  0.425000  0.275000  0.375000
W296  W  0.450000  0.250000  0.350000
Mo279  Mo  0.475000  0.275000  0.375000
Nb257  Nb  -0.000000  0.300000  0.350000
Nb258  Nb  0.025000  0.325000  0.375000
Ta270  Ta  0.050000  0.300000  0.350000
Nb259  Nb  0.075000  0.325000  0.375000
Ta271  Ta  0.100000  0.300000  0.350000
W297  W  0.125000  0.325000  0.375000
Ta272  Ta  0.150000  0.300000  0.350000
W298  W  0.175000  0.325000  0.375000
Nb260  Nb  0.200000  0.300000  0.350000
Mo280  Mo  0.225000  0.325000  0.375000
Ta273  Ta  0.250000  0.300000  0.350000
Nb261  Nb  0.275000  0.325000  0.375000
Nb262  Nb  0.300000  0.300000  0.350000
W299  W  0.325000  0.325000  0.375000
Ta274  Ta  0.350000  0.300000  0.350000
Nb263  Nb  0.375000  0.325000  0.375000
Nb264  Nb  0.400000  0.300000  0.350000
Mo281  Mo  0.425000  0.325000  0.375000
Nb265  Nb  0.450000  0.300000  0.350000
Ta275  Ta  0.475000  0.325000  0.375000
Ta276  Ta  -0.000000 -0.000000  0.400000
Mo282  Mo  0.025000  0.025000  0.425000
W300  W  0.050000 -0.000000  0.400000
Ta277  Ta  0.075000  0.025000  0.425000
Mo283  Mo  0.100000 -0.000000  0.400000
Mo284  Mo  0.125000  0.025000  0.425000
Nb266  Nb  0.150000 -0.000000  0.400000
Mo285  Mo  0.175000  0.025000  0.425000
Ta278  Ta  0.200000 -0.000000  0.400000
Nb267  Nb  0.225000  0.025000  0.425000
W301  W  0.250000 -0.000000  0.400000
W302  W  0.275000  0.025000  0.425000
W303  W  0.300000 -0.000000  0.400000
Mo286  Mo  0.325000  0.025000  0.425000
Nb268  Nb  0.350000 -0.000000  0.400000
Ta279  Ta  0.375000  0.025000  0.425000
W304  W  0.400000 -0.000000  0.400000
Nb269  Nb  0.425000  0.025000  0.425000
Mo287  Mo  0.450000 -0.000000  0.400000
Mo288  Mo  0.475000  0.025000  0.425000
W305  W  -0.000000  0.050000  0.400000
Mo289  Mo  0.025000  0.075000  0.425000
Mo290  Mo  0.050000  0.050000  0.400000
Nb270  Nb  0.075000  0.075000  0.425000
Mo291  Mo  0.100000  0.050000  0.400000
W306  W  0.125000  0.075000  0.425000
Mo292  Mo  0.150000  0.050000  0.400000
Nb271  Nb  0.175000  0.075000  0.425000
Ta280  Ta  0.200000  0.050000  0.400000
W307  W  0.225000  0.075000  0.425000
Nb272  Nb  0.250000  0.050000  0.400000
Ta281  Ta  0.275000  0.075000  0.425000
Mo293  Mo  0.300000  0.050000  0.400000
Mo294  Mo  0.325000  0.075000  0.425000
W308  W  0.350000  0.050000  0.400000
W309  W  0.375000  0.075000  0.425000
Nb273  Nb  0.400000  0.050000  0.400000
Nb274  Nb  0.425000  0.075000  0.425000
Ta282  Ta  0.450000  0.050000  0.400000
Ta283  Ta  0.475000  0.075000  0.425000
Mo295  Mo  -0.000000  0.100000  0.400000
Nb275  Nb  0.025000  0.125000  0.425000
Mo296  Mo  0.050000  0.100000  0.400000
Nb276  Nb  0.075000  0.125000  0.425000
Ta284  Ta  0.100000  0.100000  0.400000
Nb277  Nb  0.125000  0.125000  0.425000
Nb278  Nb  0.150000  0.100000  0.400000
Nb279  Nb  0.175000  0.125000  0.425000
W310  W  0.200000  0.100000  0.400000
Nb280  Nb  0.225000  0.125000  0.425000
Nb281  Nb  0.250000  0.100000  0.400000
Ta285  Ta  0.275000  0.125000  0.425000
Mo297  Mo  0.300000  0.100000  0.400000
Mo298  Mo  0.325000  0.125000  0.425000
Mo299  Mo  0.350000  0.100000  0.400000
Nb282  Nb  0.375000  0.125000  0.425000
Nb283  Nb  0.400000  0.100000  0.400000
Nb284  Nb  0.425000  0.125000  0.425000
Ta286  Ta  0.450000  0.100000  0.400000
Nb285  Nb  0.475000  0.125000  0.425000
Ta287  Ta  -0.000000  0.150000  0.400000
Ta288  Ta  0.025000  0.175000  0.425000
Nb286  Nb  0.050000  0.150000  0.400000
Nb287  Nb  0.075000  0.175000  0.425000
Mo300  Mo  0.100000  0.150000  0.400000
Nb288  Nb  0.125000  0.175000  0.425000
Mo301  Mo  0.150000  0.150000  0.400000
Ta289  Ta  0.175000  0.175000  0.425000
W311  W  0.200000  0.150000  0.400000
Ta290  Ta  0.225000  0.175000  0.425000
Mo302  Mo  0.250000  0.150000  0.400000
Ta291  Ta  0.275000  0.175000  0.425000
Mo303  Mo  0.300000  0.150000  0.400000
Ta292  Ta  0.325000  0.175000  0.425000
Ta293  Ta  0.350000  0.150000  0.400000
Ta294  Ta  0.375000  0.175000  0.425000
Ta295  Ta  0.400000  0.150000  0.400000
Mo304  Mo  0.425000  0.175000  0.425000
Ta296  Ta  0.450000  0.150000  0.400000
Ta297  Ta  0.475000  0.175000  0.425000
W312  W  -0.000000  0.200000  0.400000
Mo305  Mo  0.025000  0.225000  0.425000
Nb289  Nb  0.050000  0.200000  0.400000
W313  W  0.075000  0.225000  0.425000
W314  W  0.100000  0.200000  0.400000
Nb290  Nb  0.125000  0.225000  0.425000
Ta298  Ta  0.150000  0.200000  0.400000
Mo306  Mo  0.175000  0.225000  0.425000
Nb291  Nb  0.200000  0.200000  0.400000
Ta299  Ta  0.225000  0.225000  0.425000
Mo307  Mo  0.250000  0.200000  0.400000
Mo308  Mo  0.275000  0.225000  0.425000
Nb292  Nb  0.300000  0.200000  0.400000
W315  W  0.325000  0.225000  0.425000
W316  W  0.350000  0.200000  0.400000
W317  W  0.375000  0.225000  0.425000
Ta300  Ta  0.400000  0.200000  0.400000
W318  W  0.425000  0.225000  0.425000
Ta301  Ta  0.450000  0.200000  0.400000
Ta302  Ta  0.475000  0.225000  0.425000
Nb293  Nb  -0.000000  0.250000  0.400000
Ta303  Ta  0.025000  0.275000  0.425000
Ta304  Ta  0.050000  0.250000  0.400000
Ta305  Ta  0.075000  0.275000  0.425000
W319  W  0.100000  0.250000  0.400000
W320  W  0.125000  0.275000  0.425000
W321  W  0.150000  0.250000  0.400000
W322  W  0.175000  0.275000  0.425000
Ta306  Ta  0.200000  0.250000  0.400000
Nb294  Nb  0.225000  0.275000  0.425000
Nb295  Nb  0.250000  0.250000  0.400000
W323  W  0.275000  0.275000  0.425000
Ta307  Ta  0.300000  0.250000  0.400000
Mo309  Mo  0.325000  0.275000  0.425000
Ta308  Ta  0.350000  0.250000  0.400000
Nb296  Nb  0.375000  0.275000  0.425000
Mo310  Mo  0.400000  0.250000  0.400000
W324  W  0.425000  0.275000  0.425000
Ta309  Ta  0.450000  0.250000  0.400000
Nb297  Nb  0.475000  0.275000  0.425000
Mo311  Mo  -0.000000  0.300000  0.400000
W325  W  0.025000  0.325000  0.425000
Mo312  Mo  0.050000  0.300000  0.400000
Nb298  Nb  0.075000  0.325000  0.425000
Ta310  Ta  0.100000  0.300000  0.400000
Nb299  Nb  0.125000  0.325000  0.425000
Nb300  Nb  0.150000  0.300000  0.400000
W326  W  0.175000  0.325000  0.425000
Nb301  Nb  0.200000  0.300000  0.400000
Nb302  Nb  0.225000  0.325000  0.425000
Ta311  Ta  0.250000  0.300000  0.400000
W327  W  0.275000  0.325000  0.425000
W328  W  0.300000  0.300000  0.400000
Mo313  Mo  0.325000  0.325000  0.425000
Nb303  Nb  0.350000  0.300000  0.400000
Ta312  Ta  0.375000  0.325000  0.425000
Nb304  Nb  0.400000  0.300000  0.400000
W329  W  0.425000  0.325000  0.425000
W330  W  0.450000  0.300000  0.400000
Nb305  Nb  0.475000  0.325000  0.425000
W331  W  -0.000000 -0.000000  0.450000
Nb306  Nb  0.025000  0.025000  0.475000
W332  W  0.050000 -0.000000  0.450000
Ta313  Ta  0.075000  0.025000  0.475000
Ta314  Ta  0.100000 -0.000000  0.450000
Mo314  Mo  0.125000  0.025000  0.475000
Ta315  Ta  0.150000 -0.000000  0.450000
Ta316  Ta  0.175000  0.025000  0.475000
Ta317  Ta  0.200000 -0.000000  0.450000
Mo315  Mo  0.225000  0.025000  0.475000
Ta318  Ta  0.250000 -0.000000  0.450000
Nb307  Nb  0.275000  0.025000  0.475000
W333  W  0.300000 -0.000000  0.450000
W334  W  0.325000  0.025000  0.475000
Mo316  Mo  0.350000 -0.000000  0.450000
W335  W  0.375000  0.025000  0.475000
Ta319  Ta  0.400000 -0.000000  0.450000
Mo317  Mo  0.425000  0.025000  0.475000
Mo318  Mo  0.450000 -0.000000  0.450000
Ta320  Ta  0.475000  0.025000  0.475000
W336  W  -0.000000  0.050000  0.450000
Ta321  Ta  0.025000  0.075000  0.475000
Nb308  Nb  0.050000  0.050000  0.450000
Ta322  Ta  0.075000  0.075000  0.475000
Nb309  Nb  0.100000  0.050000  0.450000
Nb310  Nb  0.125000  0.075000  0.475000
Nb311  Nb  0.150000  0.050000  0.450000
Mo319  Mo  0.175000  0.075000  0.475000
Mo320  Mo  0.200000  0.050000  0.450000
Mo321  Mo  0.225000  0.075000  0.475000
Nb312  Nb  0.250000  0.050000  0.450000
Mo322  Mo  0.275000  0.075000  0.475000
W337  W  0.300000  0.050000  0.450000
Nb313  Nb  0.325000  0.075000  0.475000
Mo323  Mo  0.350000  0.050000  0.450000
W338  W  0.375000  0.075000  0.475000
Ta323  Ta  0.400000  0.050000  0.450000
Mo324  Mo  0.425000  0.075000  0.475000
Mo325  Mo  0.450000  0.050000  0.450000
Ta324  Ta  0.475000  0.075000  0.475000
Nb314  Nb  -0.000000  0.100000  0.450000
Ta325  Ta  0.025000  0.125000  0.475000
Mo326  Mo  0.050000  0.100000  0.450000
Ta326  Ta  0.075000  0.125000  0.475000
W339  W  0.100000  0.100000  0.450000
Nb315  Nb  0.125000  0.125000  0.475000
W340  W  0.150000  0.100000  0.450000
Ta327  Ta  0.175000  0.125000  0.475000
Nb316  Nb  0.200000  0.100000  0.450000
W341  W  0.225000  0.125000  0.475000
W342  W  0.250000  0.100000  0.450000
Nb317  Nb  0.275000  0.125000  0.475000
Nb318  Nb  0.300000  0.100000  0.450000
Nb319  Nb  0.325000  0.125000  0.475000
Nb320  Nb  0.350000  0.100000  0.450000
Nb321  Nb  0.375000  0.125000  0.475000
W343  W  0.400000  0.100000  0.450000
W344  W  0.425000  0.125000  0.475000
Mo327  Mo  0.450000  0.100000  0.450000
Ta328  Ta  0.475000  0.125000  0.475000
W345  W  -0.000000  0.150000  0.450000
W346  W  0.025000  0.175000  0.475000
Ta329  Ta  0.050000  0.150000  0.450000
Ta330  Ta  0.075000  0.175000  0.475000
Nb322  Nb  0.100000  0.150000  0.450000
Ta331  Ta  0.125000  0.175000  0.475000
Nb323  Nb  0.150000  0.150000  0.450000
Ta332  Ta  0.175000  0.175000  0.475000
Ta333  Ta  0.200000  0.150000  0.450000
W347  W  0.225000  0.175000  0.475000
Nb324  Nb  0.250000  0.150000  0.450000
Nb325  Nb  0.275000  0.175000  0.475000
Nb326  Nb  0.300000  0.150000  0.450000
Nb327  Nb  0.325000  0.175000  0.475000
Mo328  Mo  0.350000  0.150000  0.450000
W348  W  0.375000  0.175000  0.475000
Mo329  Mo  0.400000  0.150000  0.450000
Ta334  Ta  0.425000  0.175000  0.475000
Mo330  Mo  0.450000  0.150000  0.450000
Nb328  Nb  0.475000  0.175000  0.475000
Mo331  Mo  -0.000000  0.200000  0.450000
Mo332  Mo  0.025000  0.225000  0.475000
Mo333  Mo  0.050000  0.200000  0.450000
Ta335  Ta  0.075000  0.225000  0.475000
W349  W  0.100000  0.200000  0.450000
W350  W  0.125000  0.225000  0.475000
Mo334  Mo  0.150000  0.200000  0.450000
W351  W  0.175000  0.225000  0.475000
W352  W  0.200000  0.200000  0.450000
Mo335  Mo  0.225000  0.225000  0.475000
Nb329  Nb  0.250000  0.200000  0.450000
Ta336  Ta  0.275000  0.225000  0.475000
Ta337  Ta  0.300000  0.200000  0.450000
W353  W  0.325000  0.225000  0.475000
Mo336  Mo  0.350000  0.200000  0.450000
Ta338  Ta  0.375000  0.225000  0.475000
Mo337  Mo  0.400000  0.200000  0.450000
Mo338  Mo  0.425000  0.225000  0.475000
Mo339  Mo  0.450000  0.200000  0.450000
Mo340  Mo  0.475000  0.225000  0.475000
Mo341  Mo  -0.000000  0.250000  0.450000
Ta339  Ta  0.025000  0.275000  0.475000
W354  W  0.050000  0.250000  0.450000
W355  W  0.075000  0.275000  0.475000
Nb330  Nb  0.100000  0.250000  0.450000
Ta340  Ta  0.125000  0.275000  0.475000
Nb331  Nb  0.150000  0.250000  0.450000
Nb332  Nb  0.175000  0.275000  0.475000
W356  W  0.200000  0.250000  0.450000
Mo342  Mo  0.225000  0.275000  0.475000
W357  W  0.250000  0.250000  0.450000
Mo343  Mo  0.275000  0.275000  0.475000
W358  W  0.300000  0.250000  0.450000
Ta341  Ta  0.325000  0.275000  0.475000
Nb333  Nb  0.350000  0.250000  0.450000
Ta342  Ta  0.375000  0.275000  0.475000
W359  W  0.400000  0.250000  0.450000
Nb334  Nb  0.425000  0.275000  0.475000
Mo344  Mo  0.450000  0.250000  0.450000
Nb335  Nb  0.475000  0.275000  0.475000
Ta343  Ta  -0.000000  0.300000  0.450000
Mo345  Mo  0.025000  0.325000  0.475000
Nb336  Nb  0.050000  0.300000  0.450000
Mo346  Mo  0.075000  0.325000  0.475000
Ta344  Ta  0.100000  0.300000  0.450000
Ta345  Ta  0.125000  0.325000  0.475000
Mo347  Mo  0.150000  0.300000  0.450000
W360  W  0.175000  0.325000  0.475000
Mo348  Mo  0.200000  0.300000  0.450000
W361  W  0.225000  0.325000  0.475000
Mo349  Mo  0.250000  0.300000  0.450000
W362  W  0.275000  0.325000  0.475000
W363  W  0.300000  0.300000  0.450000
Nb337  Nb  0.325000  0.325000  0.475000
W364  W  0.350000  0.300000  0.450000
W365  W  0.375000  0.325000  0.475000
Nb338  Nb  0.400000  0.300000  0.450000
Mo350  Mo  0.425000  0.325000  0.475000
Ta346  Ta  0.450000  0.300000  0.450000
Ta347  Ta  0.475000  0.325000  0.475000
W366  W  -0.000000 -0.000000  0.500000
W367  W  0.025000  0.025000  0.525000
Ta348  Ta  0.050000 -0.000000  0.500000
Mo351  Mo  0.075000  0.025000  0.525000
W368  W  0.100000 -0.000000  0.500000
W369  W  0.125000  0.025000  0.525000
Ta349  Ta  0.150000 -0.000000  0.500000
W370  W  0.175000  0.025000  0.525000
Mo352  Mo  0.200000 -0.000000  0.500000
W371  W  0.225000  0.025000  0.525000
W372  W  0.250000 -0.000000  0.500000
W373  W  0.275000  0.025000  0.525000
Nb339  Nb  0.300000 -0.000000  0.500000
Ta350  Ta  0.325000  0.025000  0.525000
W374  W  0.350000 -0.000000  0.500000
Ta351  Ta  0.375000  0.025000  0.525000
Ta352  Ta  0.400000 -0.000000  0.500000
W375  W  0.425000  0.025000  0.525000
Nb340  Nb  0.450000 -0.000000  0.500000
Mo353  Mo  0.475000  0.025000  0.525000
Ta353  Ta  -0.000000  0.050000  0.500000
Ta354  Ta  0.025000  0.075000  0.525000
Mo354  Mo  0.050000  0.050000  0.500000
Ta355  Ta  0.075000  0.075000  0.525000
W376  W  0.100000  0.050000  0.500000
Mo355  Mo  0.125000  0.075000  0.525000
Ta356  Ta  0.150000  0.050000  0.500000
Ta357  Ta  0.175000  0.075000  0.525000
Mo356  Mo  0.200000  0.050000  0.500000
W377  W  0.225000  0.075000  0.525000
Nb341  Nb  0.250000  0.050000  0.500000
Nb342  Nb  0.275000  0.075000  0.525000
Mo357  Mo  0.300000  0.050000  0.500000
W378  W  0.325000  0.075000  0.525000
Ta358  Ta  0.350000  0.050000  0.500000
Nb343  Nb  0.375000  0.075000  0.525000
Mo358  Mo  0.400000  0.050000  0.500000
Nb344  Nb  0.425000  0.075000  0.525000
Mo359  Mo  0.450000  0.050000  0.500000
Ta359  Ta  0.475000  0.075000  0.525000
W379  W  -0.000000  0.100000  0.500000
Nb345  Nb  0.025000  0.125000  0.525000
Mo360  Mo  0.050000  0.100000  0.500000
W380  W  0.075000  0.125000  0.525000
W381  W  0.100000  0.100000  0.500000
Ta360  Ta  0.125000  0.125000  0.525000
Nb346  Nb  0.150000  0.100000  0.500000
Mo361  Mo  0.175000  0.125000  0.525000
Nb347  Nb  0.200000  0.100000  0.500000
Ta361  Ta  0.225000  0.125000  0.525000
Mo362  Mo  0.250000  0.100000  0.500000
W382  W  0.275000  0.125000  0.525000
Nb348  Nb  0.300000  0.100000  0.500000
W383  W  0.325000  0.125000  0.525000
Mo363  Mo  0.350000  0.100000  0.500000
Ta362  Ta  0.375000  0.125000  0.525000
Mo364  Mo  0.400000  0.100000  0.500000
Mo365  Mo  0.425000  0.125000  0.525000
W384  W  0.450000  0.100000  0.500000
Ta363  Ta  0.475000  0.125000  0.525000
Mo366  Mo  -0.000000  0.150000  0.500000
Nb349  Nb  0.025000  0.175000  0.525000
Nb350  Nb  0.050000  0.150000  0.500000
Ta364  Ta  0.075000  0.175000  0.525000
Ta365  Ta  0.100000  0.150000  0.500000
Nb351  Nb  0.125000  0.175000  0.525000
Mo367  Mo  0.150000  0.150000  0.500000
W385  W  0.175000  0.175000  0.525000
Mo368  Mo  0.200000  0.150000  0.500000
W386  W  0.225000  0.175000  0.525000
Mo369  Mo  0.250000  0.150000  0.500000
Nb352  Nb  0.275000  0.175000  0.525000
W387  W  0.300000  0.150000  0.500000
Ta366  Ta  0.325000  0.175000  0.525000
Ta367  Ta  0.350000  0.150000  0.500000
Nb353  Nb  0.375000  0.175000  0.525000
Nb354  Nb  0.400000  0.150000  0.500000
Ta368  Ta  0.425000  0.175000  0.525000
Nb355  Nb  0.450000  0.150000  0.500000
Ta369  Ta  0.475000  0.175000  0.525000
Mo370  Mo  -0.000000  0.200000  0.500000
W388  W  0.025000  0.225000  0.525000
W389  W  0.050000  0.200000  0.500000
Nb356  Nb  0.075000  0.225000  0.525000
W390  W  0.100000  0.200000  0.500000
Ta370  Ta  0.125000  0.225000  0.525000
Nb357  Nb  0.150000  0.200000  0.500000
Mo371  Mo  0.175000  0.225000  0.525000
Ta371  Ta  0.200000  0.200000  0.500000
Ta372  Ta  0.225000  0.225000  0.525000
Mo372  Mo  0.250000  0.200000  0.500000
W391  W  0.275000  0.225000  0.525000
Mo373  Mo  0.300000  0.200000  0.500000
Ta373  Ta  0.325000  0.225000  0.525000
Nb358  Nb  0.350000  0.200000  0.500000
Nb359  Nb  0.375000  0.225000  0.525000
Ta374  Ta  0.400000  0.200000  0.500000
Nb360  Nb  0.425000  0.225000  0.525000
W392  W  0.450000  0.200000  0.500000
Ta375  Ta  0.475000  0.225000  0.525000
W393  W  -0.000000  0.250000  0.500000
Ta376  Ta  0.025000  0.275000  0.525000
Ta377  Ta  0.050000  0.250000  0.500000
Nb361  Nb  0.075000  0.275000  0.525000
W394  W  0.100000  0.250000  0.500000
Mo374  Mo  0.125000  0.275000  0.525000
W395  W  0.150000  0.250000  0.500000
Ta378  Ta  0.175000  0.275000  0.525000
Ta379  Ta  0.200000  0.250000  0.500000
Nb362  Nb  0.225000  0.275000  0.525000
W396  W  0.250000  0.250000  0.500000
Mo375  Mo  0.275000  0.275000  0.525000
Ta380  Ta  0.300000  0.250000  0.500000
W397  W  0.325000  0.275000  0.525000
W398  W  0.350000  0.250000  0.500000
W399  W  0.375000  0.275000  0.525000
Mo376  Mo  0.400000  0.250000  0.500000
Ta381  Ta  0.425000  0.275000  0.525000
Ta382  Ta  0.450000  0.250000  0.500000
Nb363  Nb  0.475000  0.275000  0.525000
Ta383  Ta  -0.000000  0.300000  0.500000
Nb364  Nb  0.025000  0.325000  0.525000
W400  W  0.050000  0.300000  0.500000
Nb365  Nb  0.075000  0.325000  0.525000
Mo377  Mo  0.100000  0.300000  0.500000
Nb366  Nb  0.125000  0.325000  0.525000
Mo378  Mo  0.150000  0.300000  0.500000
Nb367  Nb  0.175000  0.325000  0.525000
Mo379  Mo  0.200000  0.300000  0.500000
Mo380  Mo  0.225000  0.325000  0.525000
Nb368  Nb  0.250000  0.300000  0.500000
Mo381  Mo  0.275000  0.325000  0.525000
W401  W  0.300000  0.300000  0.500000
W402  W  0.325000  0.325000  0.525000
W403  W  0.350000  0.300000  0.500000
Ta384  Ta  0.375000  0.325000  0.525000
Ta385  Ta  0.400000  0.300000  0.500000
Ta386  Ta  0.425000  0.325000  0.525000
Ta387  Ta  0.450000  0.300000  0.500000
Nb369  Nb  0.475000  0.325000  0.525000
W404  W  -0.000000 -0.000000  0.550000
Nb370  Nb  0.025000  0.025000  0.575000
Ta388  Ta  0.050000 -0.000000  0.550000
Nb371  Nb  0.075000  0.025000  0.575000
Nb372  Nb  0.100000 -0.000000  0.550000
Nb373  Nb  0.125000  0.025000  0.575000
Nb374  Nb  0.150000 -0.000000  0.550000
W405  W  0.175000  0.025000  0.575000
Nb375  Nb  0.200000 -0.000000  0.550000
Mo382  Mo  0.225000  0.025000  0.575000
Nb376  Nb  0.250000 -0.000000  0.550000
W406  W  0.275000  0.025000  0.575000
Mo383  Mo  0.300000 -0.000000  0.550000
Mo384  Mo  0.325000  0.025000  0.575000
Ta389  Ta  0.350000 -0.000000  0.550000
Ta390  Ta  0.375000  0.025000  0.575000
Mo385  Mo  0.400000 -0.000000  0.550000
Ta391  Ta  0.425000  0.025000  0.575000
Mo386  Mo  0.450000 -0.000000  0.550000
Mo387  Mo  0.475000  0.025000  0.575000
Ta392  Ta  -0.000000  0.050000  0.550000
Nb377  Nb  0.025000  0.075000  0.575000
Mo388  Mo  0.050000  0.050000  0.550000
Ta393  Ta  0.075000  0.075000  0.575000
W407  W  0.100000  0.050000  0.550000
W408  W  0.125000  0.075000  0.575000
W409  W  0.150000  0.050000  0.550000
W410  W  0.175000  0.075000  0.575000
Mo389  Mo  0.200000  0.050000  0.550000
W411  W  0.225000  0.075000  0.575000
Mo390  Mo  0.250000  0.050000  0.550000
Mo391  Mo  0.275000  0.075000  0.575000
Nb378  Nb  0.300000  0.050000  0.550000
W412  W  0.325000  0.075000  0.575000
Mo392  Mo  0.350000  0.050000  0.550000
Nb379  Nb  0.375000  0.075000  0.575000
Ta394  Ta  0.400000  0.050000  0.550000
Mo393  Mo  0.425000  0.075000  0.575000
Nb380  Nb  0.450000  0.050000  0.550000
W413  W  0.475000  0.075000  0.575000
Nb381  Nb  -0.000000  0.100000  0.550000
W414  W  0.025000  0.125000  0.575000
Ta395  Ta  0.050000  0.100000  0.550000
Ta396  Ta  0.075000  0.125000  0.575000
W415  W  0.100000  0.100000  0.550000
Mo394  Mo  0.125000  0.125000  0.575000
Mo395  Mo  0.150000  0.100000  0.550000
Ta397  Ta  0.175000  0.125000  0.575000
Mo396  Mo  0.200000  0.100000  0.550000
Mo397  Mo  0.225000  0.125000  0.575000
Nb382  Nb  0.250000  0.100000  0.550000
Nb383  Nb  0.275000  0.125000  0.575000
Mo398  Mo  0.300000  0.100000  0.550000
W416  W  0.325000  0.125000  0.575000
Nb384  Nb  0.350000  0.100000  0.550000
Mo399  Mo  0.375000  0.125000  0.575000
W417  W  0.400000  0.100000  0.550000
Nb385  Nb  0.425000  0.125000  0.575000
Nb386  Nb  0.450000  0.100000  0.550000
Ta398  Ta  0.475000  0.125000  0.575000
Mo400  Mo  -0.000000  0.150000  0.550000
Nb387  Nb  0.025000  0.175000  0.575000
Mo401  Mo  0.050000  0.150000  0.550000
Mo402  Mo  0.075000  0.175000  0.575000
Ta399  Ta  0.100000  0.150000  0.550000
Nb388  Nb  0.125000  0.175000  0.575000
Nb389  Nb  0.150000  0.150000  0.550000
Nb390  Nb  0.175000  0.175000  0.575000
W418  W  0.200000  0.150000  0.550000
W419  W  0.225000  0.175000  0.575000
W420  W  0.250000  0.150000  0.550000
Mo403  Mo  0.275000  0.175000  0.575000
Ta400  Ta  0.300000  0.150000  0.550000
Mo404  Mo  0.325000  0.175000  0.575000
Mo405  Mo  0.350000  0.150000  0.550000
W421  W  0.375000  0.175000  0.575000
Ta401  Ta  0.400000  0.150000  0.550000
Ta402  Ta  0.425000  0.175000  0.575000
Nb391  Nb  0.450000  0.150000  0.550000
W422  W  0.475000  0.175000  0.575000
Nb392  Nb  -0.000000  0.200000  0.550000
Mo406  Mo  0.025000  0.225000  0.575000
Nb393  Nb  0.050000  0.200000  0.550000
W423  W  0.075000  0.225000  0.575000
W424  W  0.100000  0.200000  0.550000
Ta403  Ta  0.125000  0.225000  0.575000
W425  W  0.150000  0.200000  0.550000
Ta404  Ta  0.175000  0.225000  0.575000
W426  W  0.200000  0.200000  0.550000
Mo407  Mo  0.225000  0.225000  0.575000
Nb394  Nb  0.250000  0.200000  0.550000
Mo408  Mo  0.275000  0.225000  0.575000
Mo409  Mo  0.300000  0.200000  0.550000
Mo410  Mo  0.325000  0.225000  0.575000
Mo411  Mo  0.350000  0.200000  0.550000
Ta405  Ta  0.375000  0.225000  0.575000
Ta406  Ta  0.400000  0.200000  0.550000
Ta407  Ta  0.425000  0.225000  0.575000
Ta408  Ta  0.450000  0.200000  0.550000
W427  W  0.475000  0.225000  0.575000
Nb395  Nb  -0.000000  0.250000  0.550000
Nb396  Nb  0.025000  0.275000  0.575000
Nb397  Nb  0.050000  0.250000  0.550000
Nb398  Nb  0.075000  0.275000  0.575000
Mo412  Mo  0.100000  0.250000  0.550000
Nb399  Nb  0.125000  0.275000  0.575000
W428  W  0.150000  0.250000  0.550000
Ta409  Ta  0.175000  0.275000  0.575000
Mo413  Mo  0.200000  0.250000  0.550000
Nb400  Nb  0.225000  0.275000  0.575000
Ta410  Ta  0.250000  0.250000  0.550000
Nb401  Nb  0.275000  0.275000  0.575000
Ta411  Ta  0.300000  0.250000  0.550000
Nb402  Nb  0.325000  0.275000  0.575000
Ta412  Ta  0.350000  0.250000  0.550000
Ta413  Ta  0.375000  0.275000  0.575000
W429  W  0.400000  0.250000  0.550000
Nb403  Nb  0.425000  0.275000  0.575000
Ta414  Ta  0.450000  0.250000  0.550000
Mo414  Mo  0.475000  0.275000  0.575000
W430  W  -0.000000  0.300000  0.550000
W431  W  0.025000  0.325000  0.575000
Ta415  Ta  0.050000  0.300000  0.550000
Ta416  Ta  0.075000  0.325000  0.575000
Ta417  Ta  0.100000  0.300000  0.550000
Mo415  Mo  0.125000  0.325000  0.575000
Nb404  Nb  0.150000  0.300000  0.550000
W432  W  0.175000  0.325000  0.575000
Nb405  Nb  0.200000  0.300000  0.550000
Nb406  Nb  0.225000  0.325000  0.575000
Nb407  Nb  0.250000  0.300000  0.550000
W433  W  0.275000  0.325000  0.575000
W434  W  0.300000  0.300000  0.550000
W435  W  0.325000  0.325000  0.575000
Nb408  Nb  0.350000  0.300000  0.550000
Ta418  Ta  0.375000  0.325000  0.575000
Nb409  Nb  0.400000  0.300000  0.550000
Nb410  Nb  0.425000  0.325000  0.575000
Nb411  Nb  0.450000  0.300000  0.550000
Nb412  Nb  0.475000  0.325000  0.575000
Nb413  Nb  -0.000000 -0.000000  0.600000
Mo416  Mo  0.025000  0.025000  0.625000
Nb414  Nb  0.050000 -0.000000  0.600000
Ta419  Ta  0.075000  0.025000  0.625000
Nb415  Nb  0.100000 -0.000000  0.600000
Mo417  Mo  0.125000  0.025000  0.625000
Mo418  Mo  0.150000 -0.000000  0.600000
Mo419  Mo  0.175000  0.025000  0.625000
Ta420  Ta  0.200000 -0.000000  0.600000
Mo420  Mo  0.225000  0.025000  0.625000
W436  W  0.250000 -0.000000  0.600000
Nb416  Nb  0.275000  0.025000  0.625000
Ta421  Ta  0.300000 -0.000000  0.600000
Mo421  Mo  0.325000  0.025000  0.625000
Mo422  Mo  0.350000 -0.000000  0.600000
Ta422  Ta  0.375000  0.025000  0.625000
Mo423  Mo  0.400000 -0.000000  0.600000
Mo424  Mo  0.425000  0.025000  0.625000
Mo425  Mo  0.450000 -0.000000  0.600000
Mo426  Mo  0.475000  0.025000  0.625000
W437  W  -0.000000  0.050000  0.600000
Mo427  Mo  0.025000  0.075000  0.625000
W438  W  0.050000  0.050000  0.600000
Mo428  Mo  0.075000  0.075000  0.625000
W439  W  0.100000  0.050000  0.600000
W440  W  0.125000  0.075000  0.625000
Ta423  Ta  0.150000  0.050000  0.600000
W441  W  0.175000  0.075000  0.625000
Nb417  Nb  0.200000  0.050000  0.600000
Mo429  Mo  0.225000  0.075000  0.625000
Nb418  Nb  0.250000  0.050000  0.600000
Ta424  Ta  0.275000  0.075000  0.625000
Nb419  Nb  0.300000  0.050000  0.600000
Ta425  Ta  0.325000  0.075000  0.625000
Ta426  Ta  0.350000  0.050000  0.600000
Nb420  Nb  0.375000  0.075000  0.625000
Nb421  Nb  0.400000  0.050000  0.600000
Mo430  Mo  0.425000  0.075000  0.625000
Ta427  Ta  0.450000  0.050000  0.600000
W442  W  0.475000  0.075000  0.625000
Nb422  Nb  -0.000000  0.100000  0.600000
Mo431  Mo  0.025000  0.125000  0.625000
W443  W  0.050000  0.100000  0.600000
Ta428  Ta  0.075000  0.125000  0.625000
Ta429  Ta  0.100000  0.100000  0.600000
W444  W  0.125000  0.125000  0.625000
Mo432  Mo  0.150000  0.100000  0.600000
Mo433  Mo  0.175000  0.125000  0.625000
Ta430  Ta  0.200000  0.100000  0.600000
W445  W  0.225000  0.125000  0.625000
Ta431  Ta  0.250000  0.100000  0.600000
Ta432  Ta  0.275000  0.125000  0.625000
Ta433  Ta  0.300000  0.100000  0.600000
Ta434  Ta  0.325000  0.125000  0.625000
Mo434  Mo  0.350000  0.100000  0.600000
Ta435  Ta  0.375000  0.125000  0.625000
Nb423  Nb  0.400000  0.100000  0.600000
W446  W  0.425000  0.125000  0.625000
Ta436  Ta  0.450000  0.100000  0.600000
Ta437  Ta  0.475000  0.125000  0.625000
W447  W  -0.000000  0.150000  0.600000
W448  W  0.025000  0.175000  0.625000
W449  W  0.050000  0.150000  0.600000
W450  W  0.075000  0.175000  0.625000
W451  W  0.100000  0.150000  0.600000
Nb424  Nb  0.125000  0.175000  0.625000
Nb425  Nb  0.150000  0.150000  0.600000
W452  W  0.175000  0.175000  0.625000
Ta438  Ta  0.200000  0.150000  0.600000
Nb426  Nb  0.225000  0.175000  0.625000
W453  W  0.250000  0.150000  0.600000
Ta439  Ta  0.275000  0.175000  0.625000
Mo435  Mo  0.300000  0.150000  0.600000
W454  W  0.325000  0.175000  0.625000
W455  W  0.350000  0.150000  0.600000
Nb427  Nb  0.375000  0.175000  0.625000
Ta440  Ta  0.400000  0.150000  0.600000
Mo436  Mo  0.425000  0.175000  0.625000
Nb428  Nb  0.450000  0.150000  0.600000
Mo437  Mo  0.475000  0.175000  0.625000
W456  W  -0.000000  0.200000  0.600000
Nb429  Nb  0.025000  0.225000  0.625000
Mo438  Mo  0.050000  0.200000  0.600000
W457  W  0.075000  0.225000  0.625000
Mo439  Mo  0.100000  0.200000  0.600000
Ta441  Ta  0.125000  0.225000  0.625000
Ta442  Ta  0.150000  0.200000  0.600000
W458  W  0.175000  0.225000  0.625000
Ta443  Ta  0.200000  0.200000  0.600000
Nb430  Nb  0.225000  0.225000  0.625000
Ta444  Ta  0.250000  0.200000  0.600000
Ta445  Ta  0.275000  0.225000  0.625000
Mo440  Mo  0.300000  0.200000  0.600000
Mo441  Mo  0.325000  0.225000  0.625000
Nb431  Nb  0.350000  0.200000  0.600000
W459  W  0.375000  0.225000  0.625000
W460  W  0.400000  0.200000  0.600000
Nb432  Nb  0.425000  0.225000  0.625000
W461  W  0.450000  0.200000  0.600000
Mo442  Mo  0.475000  0.225000  0.625000
Ta446  Ta  -0.000000  0.250000  0.600000
Ta447  Ta  0.025000  0.275000  0.625000
W462  W  0.050000  0.250000  0.600000
Nb433  Nb  0.075000  0.275000  0.625000
Ta448  Ta  0.100000  0.250000  0.600000
W463  W  0.125000  0.275000  0.625000
Mo443  Mo  0.150000  0.250000  0.600000
Ta449  Ta  0.175000  0.275000  0.625000
Mo444  Mo  0.200000  0.250000  0.600000
W464  W  0.225000  0.275000  0.625000
Nb434  Nb  0.250000  0.250000  0.600000
W465  W  0.275000  0.275000  0.625000
Nb435  Nb  0.300000  0.250000  0.600000
Mo445  Mo  0.325000  0.275000  0.625000
W466  W  0.350000  0.250000  0.600000
Nb436  Nb  0.375000  0.275000  0.625000
Ta450  Ta  0.400000  0.250000  0.600000
Nb437  Nb  0.425000  0.275000  0.625000
W467  W  0.450000  0.250000  0.600000
Mo446  Mo  0.475000  0.275000  0.625000
Mo447  Mo  -0.000000  0.300000  0.600000
Ta451  Ta  0.025000  0.325000  0.625000
Mo448  Mo  0.050000  0.300000  0.600000
Ta452  Ta  0.075000  0.325000  0.625000
W468  W  0.100000  0.300000  0.600000
Nb438  Nb  0.125000  0.325000  0.625000
Mo449  Mo  0.150000  0.300000  0.600000
Nb439  Nb  0.175000  0.325000  0.625000
W469  W  0.200000  0.300000  0.600000
W470  W  0.225000  0.325000  0.625000
Mo450  Mo  0.250000  0.300000  0.600000
Mo451  Mo  0.275000  0.325000  0.625000
Nb440  Nb  0.300000  0.300000  0.600000
Mo452  Mo  0.325000  0.325000  0.625000
Mo453  Mo  0.350000  0.300000  0.600000
W471  W  0.375000  0.325000  0.625000
W472  W  0.400000  0.300000  0.600000
W473  W  0.425000  0.325000  0.625000
Nb441  Nb  0.450000  0.300000  0.600000
W474  W  0.475000  0.325000  0.625000
Ta453  Ta  -0.000000 -0.000000  0.650000
Ta454  Ta  0.025000  0.025000  0.675000
Mo454  Mo  0.050000 -0.000000  0.650000
W475  W  0.075000  0.025000  0.675000
Ta455  Ta  0.100000 -0.000000  0.650000
W476  W  0.125000  0.025000  0.675000
W477  W  0.150000 -0.000000  0.650000
Mo455  Mo  0.175000  0.025000  0.675000
Mo456  Mo  0.200000 -0.000000  0.650000
Mo457  Mo  0.225000  0.025000  0.675000
Ta456  Ta  0.250000 -0.000000  0.650000
W478  W  0.275000  0.025000  0.675000
Mo458  Mo  0.300000 -0.000000  0.650000
Nb442  Nb  0.325000  0.025000  0.675000
W479  W  0.350000 -0.000000  0.650000
Ta457  Ta  0.375000  0.025000  0.675000
Mo459  Mo  0.400000 -0.000000  0.650000
Ta458  Ta  0.425000  0.025000  0.675000
W480  W  0.450000 -0.000000  0.650000
Ta459  Ta  0.475000  0.025000  0.675000
W481  W  -0.000000  0.050000  0.650000
Nb443  Nb  0.025000  0.075000  0.675000
Mo460  Mo  0.050000  0.050000  0.650000
Nb444  Nb  0.075000  0.075000  0.675000
W482  W  0.100000  0.050000  0.650000
Nb445  Nb  0.125000  0.075000  0.675000
Ta460  Ta  0.150000  0.050000  0.650000
Mo461  Mo  0.175000  0.075000  0.675000
W483  W  0.200000  0.050000  0.650000
Nb446  Nb  0.225000  0.075000  0.675000
W484  W  0.250000  0.050000  0.650000
Mo462  Mo  0.275000  0.075000  0.675000
Ta461  Ta  0.300000  0.050000  0.650000
Mo463  Mo  0.325000  0.075000  0.675000
Nb447  Nb  0.350000  0.050000  0.650000
W485  W  0.375000  0.075000  0.675000
Ta462  Ta  0.400000  0.050000  0.650000
W486  W  0.425000  0.075000  0.675000
W487  W  0.450000  0.050000  0.650000
Mo464  Mo  0.475000  0.075000  0.675000
Ta463  Ta  -0.000000  0.100000  0.650000
Mo465  Mo  0.025000  0.125000  0.675000
Mo466  Mo  0.050000  0.100000  0.650000
Mo467  Mo  0.075000  0.125000  0.675000
W488  W  0.100000  0.100000  0.650000
Mo468  Mo  0.125000  0.125000  0.675000
Nb448  Nb  0.150000  0.100000  0.650000
Ta464  Ta  0.175000  0.125000  0.675000
Mo469  Mo  0.200000  0.100000  0.650000
Mo470  Mo  0.225000  0.125000  0.675000
Mo471  Mo  0.250000  0.100000  0.650000
Nb449  Nb  0.275000  0.125000  0.675000
W489  W  0.300000  0.100000  0.650000
Mo472  Mo  0.325000  0.125000  0.675000
W490  W  0.350000  0.100000  0.650000
Ta465  Ta  0.375000  0.125000  0.675000
Mo473  Mo  0.400000  0.100000  0.650000
W491  W  0.425000  0.125000  0.675000
Mo474  Mo  0.450000  0.100000  0.650000
Mo475  Mo  0.475000  0.125000  0.675000
Ta466  Ta  -0.000000  0.150000  0.650000
Mo476  Mo  0.025000  0.175000  0.675000
Mo477  Mo  0.050000  0.150000  0.650000
Mo478  Mo  0.075000  0.175000  0.675000
Mo479  Mo  0.100000  0.150000  0.650000
Nb450  Nb  0.125000  0.175000  0.675000
Ta467  Ta  0.150000  0.150000  0.650000
Mo480  Mo  0.175000  0.175000  0.675000
Ta468  Ta  0.200000  0.150000  0.650000
Ta469  Ta  0.225000  0.175000  0.675000
Ta470  Ta  0.250000  0.150000  0.650000
W492  W  0.275000  0.175000  0.675000
Mo481  Mo  0.300000  0.150000  0.650000
Nb451  Nb  0.325000  0.175000  0.675000
Mo482  Mo  0.350000  0.150000  0.650000
W493  W  0.375000  0.175000  0.675000
W494  W  0.400000  0.150000  0.650000
W495  W  0.425000  0.175000  0.675000
Nb452  Nb  0.450000  0.150000  0.650000
Mo483  Mo  0.475000  0.175000  0.675000
Mo484  Mo  -0.000000  0.200000  0.650000
Mo485  Mo  0.025000  0.225000  0.675000
Nb453  Nb  0.050000  0.200000  0.650000
Nb454  Nb  0.075000  0.225000  0.675000
W496  W  0.100000  0.200000  0.650000
Ta471  Ta  0.125000  0.225000  0.675000
Mo486  Mo  0.150000  0.200000  0.650000
W497  W  0.175000  0.225000  0.675000
Mo487  Mo  0.200000  0.200000  0.650000
Nb455  Nb  0.225000  0.225000  0.675000
Nb456  Nb  0.250000  0.200000  0.650000
Mo488  Mo  0.275000  0.225000  0.675000
Nb457  Nb  0.300000  0.200000  0.650000
Nb458  Nb  0.325000  0.225000  0.675000
Ta472  Ta  0.350000  0.200000  0.650000
Mo489  Mo  0.375000  0.225000  0.675000
Nb459  Nb  0.400000  0.200000  0.650000
Ta473  Ta  0.425000  0.225000  0.675000
W498  W  0.450000  0.200000  0.650000
W499  W  0.475000  0.225000  0.675000
W500  W  -0.000000  0.250000  0.650000
Mo490  Mo  0.025000  0.275000  0.675000
Nb460  Nb  0.050000  0.250000  0.650000
Mo491  Mo  0.075000  0.275000  0.675000
Mo492  Mo  0.100000  0.250000  0.650000
Ta474  Ta  0.125000  0.275000  0.675000
Nb461  Nb  0.150000  0.250000  0.650000
Mo493  Mo  0.175000  0.275000  0.675000
Mo494  Mo  0.200000  0.250000  0.650000
Nb462  Nb  0.225000  0.275000  0.675000
Mo495  Mo  0.250000  0.250000  0.650000
Nb463  Nb  0.275000  0.275000  0.675000
Mo496  Mo  0.300000  0.250000  0.650000
Nb464  Nb  0.325000  0.275000  0.675000
W501  W  0.350000  0.250000  0.650000
Nb465  Nb  0.375000  0.275000  0.675000
Mo497  Mo  0.400000  0.250000  0.650000
Mo498  Mo  0.425000  0.275000  0.675000
Nb466  Nb  0.450000  0.250000  0.650000
Mo499  Mo  0.475000  0.275000  0.675000
Nb467  Nb  -0.000000  0.300000  0.650000
Ta475  Ta  0.025000  0.325000  0.675000
W502  W  0.050000  0.300000  0.650000
Nb468  Nb  0.075000  0.325000  0.675000
W503  W  0.100000  0.300000  0.650000
W504  W  0.125000  0.325000  0.675000
Mo500  Mo  0.150000  0.300000  0.650000
W505  W  0.175000  0.325000  0.675000
Nb469  Nb  0.200000  0.300000  0.650000
Ta476  Ta  0.225000  0.325000  0.675000
Ta477  Ta  0.250000  0.300000  0.650000
Ta478  Ta  0.275000  0.325000  0.675000
Nb470  Nb  0.300000  0.300000  0.650000
W506  W  0.325000  0.325000  0.675000
Nb471  Nb  0.350000  0.300000  0.650000
Nb472  Nb  0.375000  0.325000  0.675000
Ta479  Ta  0.400000  0.300000  0.650000
Nb473  Nb  0.425000  0.325000  0.675000
Mo501  Mo  0.450000  0.300000  0.650000
Ta480  Ta  0.475000  0.325000  0.675000
Mo502  Mo  -0.000000 -0.000000  0.700000
W507  W  0.025000  0.025000  0.725000
W508  W  0.050000 -0.000000  0.700000
Mo503  Mo  0.075000  0.025000  0.725000
Nb474  Nb  0.100000 -0.000000  0.700000
W509  W  0.125000  0.025000  0.725000
Nb475  Nb  0.150000 -0.000000  0.700000
Nb476  Nb  0.175000  0.025000  0.725000
W510  W  0.200000 -0.000000  0.700000
Ta481  Ta  0.225000  0.025000  0.725000
W511  W  0.250000 -0.000000  0.700000
Ta482  Ta  0.275000  0.025000  0.725000
Ta483  Ta  0.300000 -0.000000  0.700000
W512  W  0.325000  0.025000  0.725000
Nb477  Nb  0.350000 -0.000000  0.700000
W513  W  0.375000  0.025000  0.725000
W514  W  0.400000 -0.000000  0.700000
Nb478  Nb  0.425000  0.025000  0.725000
W515  W  0.450000 -0.000000  0.700000
W516  W  0.475000  0.025000  0.725000
Nb479  Nb  -0.000000  0.050000  0.700000
W517  W  0.025000  0.075000  0.725000
Nb480  Nb  0.050000  0.050000  0.700000
W518  W  0.075000  0.075000  0.725000
Mo504  Mo  0.100000  0.050000  0.700000
Nb481  Nb  0.125000  0.075000  0.725000
W519  W  0.150000  0.050000  0.700000
Nb482  Nb  0.175000  0.075000  0.725000
Nb483  Nb  0.200000  0.050000  0.700000
Mo505  Mo  0.225000  0.075000  0.725000
W520  W  0.250000  0.050000  0.700000
Ta484  Ta  0.275000  0.075000  0.725000
Nb484  Nb  0.300000  0.050000  0.700000
Nb485  Nb  0.325000  0.075000  0.725000
Mo506  Mo  0.350000  0.050000  0.700000
Mo507  Mo  0.375000  0.075000  0.725000
Nb486  Nb  0.400000  0.050000  0.700000
Ta485  Ta  0.425000  0.075000  0.725000
Mo508  Mo  0.450000  0.050000  0.700000
Mo509  Mo  0.475000  0.075000  0.725000
Ta486  Ta  -0.000000  0.100000  0.700000
Mo510  Mo  0.025000  0.125000  0.725000
Ta487  Ta  0.050000  0.100000  0.700000
Mo511  Mo  0.075000  0.125000  0.725000
Mo512  Mo  0.100000  0.100000  0.700000
W521  W  0.125000  0.125000  0.725000
Mo513  Mo  0.150000  0.100000  0.700000
W522  W  0.175000  0.125000  0.725000
Mo514  Mo  0.200000  0.100000  0.700000
W523  W  0.225000  0.125000  0.725000
W524  W  0.250000  0.100000  0.700000
Mo515  Mo  0.275000  0.125000  0.725000
Nb487  Nb  0.300000  0.100000  0.700000
Ta488  Ta  0.325000  0.125000  0.725000
Ta489  Ta  0.350000  0.100000  0.700000
Mo516  Mo  0.375000  0.125000  0.725000
W525  W  0.400000  0.100000  0.700000
Nb488  Nb  0.425000  0.125000  0.725000
Nb489  Nb  0.450000  0.100000  0.700000
Ta490  Ta  0.475000  0.125000  0.725000
W526  W  -0.000000  0.150000  0.700000
W527  W  0.025000  0.175000  0.725000
Mo517  Mo  0.050000  0.150000  0.700000
Ta491  Ta  0.075000  0.175000  0.725000
Nb490  Nb  0.100000  0.150000  0.700000
Ta492  Ta  0.125000  0.175000  0.725000
Ta493  Ta  0.150000  0.150000  0.700000
W528  W  0.175000  0.175000  0.725000
Mo518  Mo  0.200000  0.150000  0.700000
Mo519  Mo  0.225000  0.175000  0.725000
Mo520  Mo  0.250000  0.150000  0.700000
Ta494  Ta  0.275000  0.175000  0.725000
Ta495  Ta  0.300000  0.150000  0.700000
Mo521  Mo  0.325000  0.175000  0.725000
W529  W  0.350000  0.150000  0.700000
Mo522  Mo  0.375000  0.175000  0.725000
Mo523  Mo  0.400000  0.150000  0.700000
W530  W  0.425000  0.175000  0.725000
Ta496  Ta  0.450000  0.150000  0.700000
Ta497  Ta  0.475000  0.175000  0.725000
Ta498  Ta  -0.000000  0.200000  0.700000
Mo524  Mo  0.025000  0.225000  0.725000
Ta499  Ta  0.050000  0.200000  0.700000
Ta500  Ta  0.075000  0.225000  0.725000
Ta501  Ta  0.100000  0.200000  0.700000
Nb491  Nb  0.125000  0.225000  0.725000
Ta502  Ta  0.150000  0.200000  0.700000
Nb492  Nb  0.175000  0.225000  0.725000
Mo525  Mo  0.200000  0.200000  0.700000
W531  W  0.225000  0.225000  0.725000
W532  W  0.250000  0.200000  0.700000
W533  W  0.275000  0.225000  0.725000
W534  W  0.300000  0.200000  0.700000
W535  W  0.325000  0.225000  0.725000
Ta503  Ta  0.350000  0.200000  0.700000
Nb493  Nb  0.375000  0.225000  0.725000
Mo526  Mo  0.400000  0.200000  0.700000
Nb494  Nb  0.425000  0.225000  0.725000
Nb495  Nb  0.450000  0.200000  0.700000
Mo527  Mo  0.475000  0.225000  0.725000
Nb496  Nb  -0.000000  0.250000  0.700000
Nb497  Nb  0.025000  0.275000  0.725000
Nb498  Nb  0.050000  0.250000  0.700000
Nb499  Nb  0.075000  0.275000  0.725000
W536  W  0.100000  0.250000  0.700000
Ta504  Ta  0.125000  0.275000  0.725000
Mo528  Mo  0.150000  0.250000  0.700000
Nb500  Nb  0.175000  0.275000  0.725000
Mo529  Mo  0.200000  0.250000  0.700000
Ta505  Ta  0.225000  0.275000  0.725000
Nb501  Nb  0.250000  0.250000  0.700000
W537  W  0.275000  0.275000  0.725000
Mo530  Mo  0.300000  0.250000  0.700000
W538  W  0.325000  0.275000  0.725000
Ta506  Ta  0.350000  0.250000  0.700000
Ta507  Ta  0.375000  0.275000  0.725000
W539  W  0.400000  0.250000  0.700000
W540  W  0.425000  0.275000  0.725000
Mo531  Mo  0.450000  0.250000  0.700000
Nb502  Nb  0.475000  0.275000  0.725000
Nb503  Nb  -0.000000  0.300000  0.700000
Ta508  Ta  0.025000  0.325000  0.725000
Ta509  Ta  0.050000  0.300000  0.700000
Ta510  Ta  0.075000  0.325000  0.725000
Nb504  Nb  0.100000  0.300000  0.700000
Ta511  Ta  0.125000  0.325000  0.725000
Mo532  Mo  0.150000  0.300000  0.700000
Nb505  Nb  0.175000  0.325000  0.725000
Nb506  Nb  0.200000  0.300000  0.700000
Nb507  Nb  0.225000  0.325000  0.725000
Nb508  Nb  0.250000  0.300000  0.700000
Ta512  Ta  0.275000  0.325000  0.725000
Nb509  Nb  0.300000  0.300000  0.700000
Nb510  Nb  0.325000  0.325000  0.725000
Ta513  Ta  0.350000  0.300000  0.700000
W541  W  0.375000  0.325000  0.725000
Mo533  Mo  0.400000  0.300000  0.700000
Nb511  Nb  0.425000  0.325000  0.725000
W542  W  0.450000  0.300000  0.700000
W543  W  0.475000  0.325000  0.725000
W544  W  -0.000000 -0.000000  0.750000
Ta514  Ta  0.025000  0.025000  0.775000
Mo534  Mo  0.050000 -0.000000  0.750000
W545  W  0.075000  0.025000  0.775000
Nb512  Nb  0.100000 -0.000000  0.750000
Ta515  Ta  0.125000  0.025000  0.775000
W546  W  0.150000 -0.000000  0.750000
Ta516  Ta  0.175000  0.025000  0.775000
Nb513  Nb  0.200000 -0.000000  0.750000
Nb514  Nb  0.225000  0.025000  0.775000
Ta517  Ta  0.250000 -0.000000  0.750000
Nb515  Nb  0.275000  0.025000  0.775000
Nb516  Nb  0.300000 -0.000000  0.750000
Nb517  Nb  0.325000  0.025000  0.775000
Nb518  Nb  0.350000 -0.000000  0.750000
Mo535  Mo  0.375000  0.025000  0.775000
Nb519  Nb  0.400000 -0.000000  0.750000
Mo536  Mo  0.425000  0.025000  0.775000
Nb520  Nb  0.450000 -0.000000  0.750000
W547  W  0.475000  0.025000  0.775000
Nb521  Nb  -0.000000  0.050000  0.750000
Mo537  Mo  0.025000  0.075000  0.775000
Mo538  Mo  0.050000  0.050000  0.750000
Mo539  Mo  0.075000  0.075000  0.775000
Mo540  Mo  0.100000  0.050000  0.750000
Nb522  Nb  0.125000  0.075000  0.775000
Ta518  Ta  0.150000  0.050000  0.750000
Nb523  Nb  0.175000  0.075000  0.775000
Mo541  Mo  0.200000  0.050000  0.750000
Mo542  Mo  0.225000  0.075000  0.775000
Ta519  Ta  0.250000  0.050000  0.750000
Mo543  Mo  0.275000  0.075000  0.775000
Nb524  Nb  0.300000  0.050000  0.750000
Mo544  Mo  0.325000  0.075000  0.775000
Ta520  Ta  0.350000  0.050000  0.750000
W548  W  0.375000  0.075000  0.775000
Mo545  Mo  0.400000  0.050000  0.750000
Nb525  Nb  0.425000  0.075000  0.775000
Ta521  Ta  0.450000  0.050000  0.750000
Mo546  Mo  0.475000  0.075000  0.775000
Ta522  Ta  -0.000000  0.100000  0.750000
Ta523  Ta  0.025000  0.125000  0.775000
Mo547  Mo  0.050000  0.100000  0.750000
W549  W  0.075000  0.125000  0.775000
Mo548  Mo  0.100000  0.100000  0.750000
W550  W  0.125000  0.125000  0.775000
W551  W  0.150000  0.100000  0.750000
W552  W  0.175000  0.125000  0.775000
W553  W  0.200000  0.100000  0.750000
Mo549  Mo  0.225000  0.125000  0.775000
Mo550  Mo  0.250000  0.100000  0.750000
Mo551  Mo  0.275000  0.125000  0.775000
W554  W  0.300000  0.100000  0.750000
W555  W  0.325000  0.125000  0.775000
Ta524  Ta  0.350000  0.100000  0.750000
Mo552  Mo  0.375000  0.125000  0.775000
Nb526  Nb  0.400000  0.100000  0.750000
W556  W  0.425000  0.125000  0.775000
Mo553  Mo  0.450000  0.100000  0.750000
Nb527  Nb  0.475000  0.125000  0.775000
W557  W  -0.000000  0.150000  0.750000
Mo554  Mo  0.025000  0.175000  0.775000
Nb528  Nb  0.050000  0.150000  0.750000
W558  W  0.075000  0.175000  0.775000
Ta525  Ta  0.100000  0.150000  0.750000
W559  W  0.125000  0.175000  0.775000
Mo555  Mo  0.150000  0.150000  0.750000
Mo556  Mo  0.175000  0.175000  0.775000
Ta526  Ta  0.200000  0.150000  0.750000
W560  W  0.225000  0.175000  0.775000
Mo557  Mo  0.250000  0.150000  0.750000
Nb529  Nb  0.275000  0.175000  0.775000
Mo558  Mo  0.300000  0.150000  0.750000
Ta527  Ta  0.325000  0.175000  0.775000
Nb530  Nb  0.350000  0.150000  0.750000
Ta528  Ta  0.375000  0.175000  0.775000
W561  W  0.400000  0.150000  0.750000
W562  W  0.425000  0.175000  0.775000
Nb531  Nb  0.450000  0.150000  0.750000
W563  W  0.475000  0.175000  0.775000
W564  W  -0.000000  0.200000  0.750000
W565  W  0.025000  0.225000  0.775000
W566  W  0.050000  0.200000  0.750000
W567  W  0.075000  0.225000  0.775000
W568  W  0.100000  0.200000  0.750000
Ta529  Ta  0.125000  0.225000  0.775000
W569  W  0.150000  0.200000  0.750000
W570  W  0.175000  0.225000  0.775000
W571  W  0.200000  0.200000  0.750000
Ta530  Ta  0.225000  0.225000  0.775000
Nb532  Nb  0.250000  0.200000  0.750000
W572  W  0.275000  0.225000  0.775000
Mo559  Mo  0.300000  0.200000  0.750000
Nb533  Nb  0.325000  0.225000  0.775000
Ta531  Ta  0.350000  0.200000  0.750000
Nb534  Nb  0.375000  0.225000  0.775000
W573  W  0.400000  0.200000  0.750000
Nb535  Nb  0.425000  0.225000  0.775000
Mo560  Mo  0.450000  0.200000  0.750000
Ta532  Ta  0.475000  0.225000  0.775000
Ta533  Ta  -0.000000  0.250000  0.750000
W574  W  0.025000  0.275000  0.775000
W575  W  0.050000  0.250000  0.750000
Ta534  Ta  0.075000  0.275000  0.775000
Nb536  Nb  0.100000  0.250000  0.750000
Mo561  Mo  0.125000  0.275000  0.775000
W576  W  0.150000  0.250000  0.750000
W577  W  0.175000  0.275000  0.775000
Ta535  Ta  0.200000  0.250000  0.750000
Mo562  Mo  0.225000  0.275000  0.775000
Ta536  Ta  0.250000  0.250000  0.750000
Ta537  Ta  0.275000  0.275000  0.775000
W578  W  0.300000  0.250000  0.750000
Mo563  Mo  0.325000  0.275000  0.775000
Ta538  Ta  0.350000  0.250000  0.750000
Ta539  Ta  0.375000  0.275000  0.775000
Ta540  Ta  0.400000  0.250000  0.750000
Ta541  Ta  0.425000  0.275000  0.775000
W579  W  0.450000  0.250000  0.750000
Ta542  Ta  0.475000  0.275000  0.775000
Nb537  Nb  -0.000000  0.300000  0.750000
Ta543  Ta  0.025000  0.325000  0.775000
Nb538  Nb  0.050000  0.300000  0.750000
W580  W  0.075000  0.325000  0.775000
W581  W  0.100000  0.300000  0.750000
Ta544  Ta  0.125000  0.325000  0.775000
Mo564  Mo  0.150000  0.300000  0.750000
W582  W  0.175000  0.325000  0.775000
W583  W  0.200000  0.300000  0.750000
Ta545  Ta  0.225000  0.325000  0.775000
Nb539  Nb  0.250000  0.300000  0.750000
Mo565  Mo  0.275000  0.325000  0.775000
Ta546  Ta  0.300000  0.300000  0.750000
W584  W  0.325000  0.325000  0.775000
Ta547  Ta  0.350000  0.300000  0.750000
Mo566  Mo  0.375000  0.325000  0.775000
Mo567  Mo  0.400000  0.300000  0.750000
Nb540  Nb  0.425000  0.325000  0.775000
Mo568  Mo  0.450000  0.300000  0.750000
W585  W  0.475000  0.325000  0.775000
W586  W  -0.000000 -0.000000  0.800000
Ta548  Ta  0.025000  0.025000  0.825000
Mo569  Mo  0.050000 -0.000000  0.800000
Nb541  Nb  0.075000  0.025000  0.825000
W587  W  0.100000 -0.000000  0.800000
W588  W  0.125000  0.025000  0.825000
Ta549  Ta  0.150000 -0.000000  0.800000
Ta550  Ta  0.175000  0.025000  0.825000
W589  W  0.200000 -0.000000  0.800000
W590  W  0.225000  0.025000  0.825000
W591  W  0.250000 -0.000000  0.800000
W592  W  0.275000  0.025000  0.825000
Ta551  Ta  0.300000 -0.000000  0.800000
Mo570  Mo  0.325000  0.025000  0.825000
W593  W  0.350000 -0.000000  0.800000
W594  W  0.375000  0.025000  0.825000
Nb542  Nb  0.400000 -0.000000  0.800000
W595  W  0.425000  0.025000  0.825000
Ta552  Ta  0.450000 -0.000000  0.800000
Ta553  Ta  0.475000  0.025000  0.825000
Mo571  Mo  -0.000000  0.050000  0.800000
Mo572  Mo  0.025000  0.075000  0.825000
Nb543  Nb  0.050000  0.050000  0.800000
W596  W  0.075000  0.075000  0.825000
W597  W  0.100000  0.050000  0.800000
Ta554  Ta  0.125000  0.075000  0.825000
Nb544  Nb  0.150000  0.050000  0.800000
Mo573  Mo  0.175000  0.075000  0.825000
Mo574  Mo  0.200000  0.050000  0.800000
Mo575  Mo  0.225000  0.075000  0.825000
Nb545  Nb  0.250000  0.050000  0.800000
W598  W  0.275000  0.075000  0.825000
Nb546  Nb  0.300000  0.050000  0.800000
Mo576  Mo  0.325000  0.075000  0.825000
Ta555  Ta  0.350000  0.050000  0.800000
Ta556  Ta  0.375000  0.075000  0.825000
Nb547  Nb  0.400000  0.050000  0.800000
W599  W  0.425000  0.075000  0.825000
Mo577  Mo  0.450000  0.050000  0.800000
Ta557  Ta  0.475000  0.075000  0.825000
Ta558  Ta  -0.000000  0.100000  0.800000
Mo578  Mo  0.025000  0.125000  0.825000
Ta559  Ta  0.050000  0.100000  0.800000
Ta560  Ta  0.075000  0.125000  0.825000
Ta561  Ta  0.100000  0.100000  0.800000
W600  W  0.125000  0.125000  0.825000
Ta562  Ta  0.150000  0.100000  0.800000
W601  W  0.175000  0.125000  0.825000
Mo579  Mo  0.200000  0.100000  0.800000
Nb548  Nb  0.225000  0.125000  0.825000
Ta563  Ta  0.250000  0.100000  0.800000
Mo580  Mo  0.275000  0.125000  0.825000
W602  W  0.300000  0.100000  0.800000
Ta564  Ta  0.325000  0.125000  0.825000
W603  W  0.350000  0.100000  0.800000
Ta565  Ta  0.375000  0.125000  0.825000
Nb549  Nb  0.400000  0.100000  0.800000
W604  W  0.425000  0.125000  0.825000
Nb550  Nb  0.450000  0.100000  0.800000
Mo581  Mo  0.475000  0.125000  0.825000
W605  W  -0.000000  0.150000  0.800000
Mo582  Mo  0.025000  0.175000  0.825000
Mo583  Mo  0.050000  0.150000  0.800000
W606  W  0.075000  0.175000  0.825000
W607  W  0.100000  0.150000  0.800000
Ta566  Ta  0.125000  0.175000  0.825000
Ta567  Ta  0.150000  0.150000  0.800000
Mo584  Mo  0.175000  0.175000  0.825000
Mo585  Mo  0.200000  0.150000  0.800000
Nb551  Nb  0.225000  0.175000  0.825000
Nb552  Nb  0.250000  0.150000  0.800000
Mo586  Mo  0.275000  0.175000  0.825000
Mo587  Mo  0.300000  0.150000  0.800000
W608  W  0.325000  0.175000  0.825000
Mo588  Mo  0.350000  0.150000  0.800000
Nb553  Nb  0.375000  0.175000  0.825000
Ta568  Ta  0.400000  0.150000  0.800000
Nb554  Nb  0.425000  0.175000  0.825000
Ta569  Ta  0.450000  0.150000  0.800000
Mo589  Mo  0.475000  0.175000  0.825000
Mo590  Mo  -0.000000  0.200000  0.800000
Mo591  Mo  0.025000  0.225000  0.825000
W609  W  0.050000  0.200000  0.800000
W610  W  0.075000  0.225000  0.825000
Nb555  Nb  0.100000  0.200000  0.800000
Nb556  Nb  0.125000  0.225000  0.825000
Ta570  Ta  0.150000  0.200000  0.800000
Mo592  Mo  0.175000  0.225000  0.825000
Ta571  Ta  0.200000  0.200000  0.800000
W611  W  0.225000  0.225000  0.825000
Nb557  Nb  0.250000  0.200000  0.800000
W612  W  0.275000  0.225000  0.825000
Nb558  Nb  0.300000  0.200000  0.800000
Ta572  Ta  0.325000  0.225000  0.825000
W613  W  0.350000  0.200000  0.800000
Mo593  Mo  0.375000  0.225000  0.825000
Ta573  Ta  0.400000  0.200000  0.800000
Mo594  Mo  0.425000  0.225000  0.825000
Ta574  Ta  0.450000  0.200000  0.800000
W614  W  0.475000  0.225000  0.825000
Mo595  Mo  -0.000000  0.250000  0.800000
Nb559  Nb  0.025000  0.275000  0.825000
W615  W  0.050000  0.250000  0.800000
Ta575  Ta  0.075000  0.275000  0.825000
Nb560  Nb  0.100000  0.250000  0.800000
Nb561  Nb  0.125000  0.275000  0.825000
Mo596  Mo  0.150000  0.250000  0.800000
Ta576  Ta  0.175000  0.275000  0.825000
W616  W  0.200000  0.250000  0.800000
Mo597  Mo  0.225000  0.275000  0.825000
Mo598  Mo  0.250000  0.250000  0.800000
Ta577  Ta  0.275000  0.275000  0.825000
Nb562  Nb  0.300000  0.250000  0.800000
W617  W  0.325000  0.275000  0.825000
W618  W  0.350000  0.250000  0.800000
Nb563  Nb  0.375000  0.275000  0.825000
Nb564  Nb  0.400000  0.250000  0.800000
Nb565  Nb  0.425000  0.275000  0.825000
Ta578  Ta  0.450000  0.250000  0.800000
W619  W  0.475000  0.275000  0.825000
Nb566  Nb  -0.000000  0.300000  0.800000
Mo599  Mo  0.025000  0.325000  0.825000
W620  W  0.050000  0.300000  0.800000
Nb567  Nb  0.075000  0.325000  0.825000
Mo600  Mo  0.100000  0.300000  0.800000
W621  W  0.125000  0.325000  0.825000
W622  W  0.150000  0.300000  0.800000
Nb568  Nb  0.175000  0.325000  0.825000
Nb569  Nb  0.200000  0.300000  0.800000
Ta579  Ta  0.225000  0.325000  0.825000
Ta580  Ta  0.250000  0.300000  0.800000
Nb570  Nb  0.275000  0.325000  0.825000
Mo601  Mo  0.300000  0.300000  0.800000
Ta581  Ta  0.325000  0.325000  0.825000
Mo602  Mo  0.350000  0.300000  0.800000
W623  W  0.375000  0.325000  0.825000
Ta582  Ta  0.400000  0.300000  0.800000
Ta583  Ta  0.425000  0.325000  0.825000
W624  W  0.450000  0.300000  0.800000
Nb571  Nb  0.475000  0.325000  0.825000
Nb572  Nb  -0.000000 -0.000000  0.850000
W625  W  0.025000  0.025000  0.875000
W626  W  0.050000 -0.000000  0.850000
Mo603  Mo  0.075000  0.025000  0.875000
W627  W  0.100000 -0.000000  0.850000
W628  W  0.125000  0.025000  0.875000
W629  W  0.150000 -0.000000  0.850000
Ta584  Ta  0.175000  0.025000  0.875000
Mo604  Mo  0.200000 -0.000000  0.850000
Nb573  Nb  0.225000  0.025000  0.875000
W630  W  0.250000 -0.000000  0.850000
Mo605  Mo  0.275000  0.025000  0.875000
Ta585  Ta  0.300000 -0.000000  0.850000
Nb574  Nb  0.325000  0.025000  0.875000
Mo606  Mo  0.350000 -0.000000  0.850000
Ta586  Ta  0.375000  0.025000  0.875000
Ta587  Ta  0.400000 -0.000000  0.850000
W631  W  0.425000  0.025000  0.875000
W632  W  0.450000 -0.000000  0.850000
Nb575  Nb  0.475000  0.025000  0.875000
Ta588  Ta  -0.000000  0.050000  0.850000
Ta589  Ta  0.025000  0.075000  0.875000
Ta590  Ta  0.050000  0.050000  0.850000
Nb576  Nb  0.075000  0.075000  0.875000
Ta591  Ta  0.100000  0.050000  0.850000
Mo607  Mo  0.125000  0.075000  0.875000
Nb577  Nb  0.150000  0.050000  0.850000
Ta592  Ta  0.175000  0.075000  0.875000
Ta593  Ta  0.200000  0.050000  0.850000
W633  W  0.225000  0.075000  0.875000
W634  W  0.250000  0.050000  0.850000
Mo608  Mo  0.275000  0.075000  0.875000
Mo609  Mo  0.300000  0.050000  0.850000
W635  W  0.325000  0.075000  0.875000
Nb578  Nb  0.350000  0.050000  0.850000
W636  W  0.375000  0.075000  0.875000
W637  W  0.400000  0.050000  0.850000
Nb579  Nb  0.425000  0.075000  0.875000
Ta594  Ta  0.450000  0.050000  0.850000
Ta595  Ta  0.475000  0.075000  0.875000
Mo610  Mo  -0.000000  0.100000  0.850000
W638  W  0.025000  0.125000  0.875000
Ta596  Ta  0.050000  0.100000  0.850000
Ta597  Ta  0.075000  0.125000  0.875000
Nb580  Nb  0.100000  0.100000  0.850000
Mo611  Mo  0.125000  0.125000  0.875000
W639  W  0.150000  0.100000  0.850000
Mo612  Mo  0.175000  0.125000  0.875000
Mo613  Mo  0.200000  0.100000  0.850000
Mo614  Mo  0.225000  0.125000  0.875000
Ta598  Ta  0.250000  0.100000  0.850000
W640  W  0.275000  0.125000  0.875000
Ta599  Ta  0.300000  0.100000  0.850000
W641  W  0.325000  0.125000  0.875000
Ta600  Ta  0.350000  0.100000  0.850000
Nb581  Nb  0.375000  0.125000  0.875000
Mo615  Mo  0.400000  0.100000  0.850000
Mo616  Mo  0.425000  0.125000  0.875000
Ta601  Ta  0.450000  0.100000  0.850000
W642  W  0.475000  0.125000  0.875000
Mo617  Mo  -0.000000  0.150000  0.850000
Nb582  Nb  0.025000  0.175000  0.875000
Mo618  Mo  0.050000  0.150000  0.850000
Nb583  Nb  0.075000  0.175000  0.875000
Ta602  Ta  0.100000  0.150000  0.850000
Mo619  Mo  0.125000  0.175000  0.875000
W643  W  0.150000  0.150000  0.850000
Ta603  Ta  0.175000  0.175000  0.875000
Mo620  Mo  0.200000  0.150000  0.850000
Nb584  Nb  0.225000  0.175000  0.875000
Ta604  Ta  0.250000  0.150000  0.850000
W644  W  0.275000  0.175000  0.875000
W645  W  0.300000  0.150000  0.850000
Mo621  Mo  0.325000  0.175000  0.875000
Mo622  Mo  0.350000  0.150000  0.850000
Ta605  Ta  0.375000  0.175000  0.875000
Nb585  Nb  0.400000  0.150000  0.850000
W646  W  0.425000  0.175000  0.875000
Nb586  Nb  0.450000  0.150000  0.850000
Ta606  Ta  0.475000  0.175000  0.875000
Ta607  Ta  -0.000000  0.200000  0.850000
Ta608  Ta  0.025000  0.225000  0.875000
W647  W  0.050000  0.200000  0.850000
Mo623  Mo  0.075000  0.225000  0.875000
W648  W  0.100000  0.200000  0.850000
Mo624  Mo  0.125000  0.225000  0.875000
Mo625  Mo  0.150000  0.200000  0.850000
W649  W  0.175000  0.225000  0.875000
Nb587  Nb  0.200000  0.200000  0.850000
Ta609  Ta  0.225000  0.225000  0.875000
Mo626  Mo  0.250000  0.200000  0.850000
Nb588  Nb  0.275000  0.225000  0.875000
Ta610  Ta  0.300000  0.200000  0.850000
W650  W  0.325000  0.225000  0.875000
Nb589  Nb  0.350000  0.200000  0.850000
W651  W  0.375000  0.225000  0.875000
Nb590  Nb  0.400000  0.200000  0.850000
Nb591  Nb  0.425000  0.225000  0.875000
Ta611  Ta  0.450000  0.200000  0.850000
Ta612  Ta  0.475000  0.225000  0.875000
Nb592  Nb  -0.000000  0.250000  0.850000
Nb593  Nb  0.025000  0.275000  0.875000
W652  W  0.050000  0.250000  0.850000
W653  W  0.075000  0.275000  0.875000
Ta613  Ta  0.100000  0.250000  0.850000
Nb594  Nb  0.125000  0.275000  0.875000
Nb595  Nb  0.150000  0.250000  0.850000
W654  W  0.175000  0.275000  0.875000
W655  W  0.200000  0.250000  0.850000
Nb596  Nb  0.225000  0.275000  0.875000
Ta614  Ta  0.250000  0.250000  0.850000
Mo627  Mo  0.275000  0.275000  0.875000
Nb597  Nb  0.300000  0.250000  0.850000
Mo628  Mo  0.325000  0.275000  0.875000
W656  W  0.350000  0.250000  0.850000
Ta615  Ta  0.375000  0.275000  0.875000
Ta616  Ta  0.400000  0.250000  0.850000
W657  W  0.425000  0.275000  0.875000
Mo629  Mo  0.450000  0.250000  0.850000
Nb598  Nb  0.475000  0.275000  0.875000
Nb599  Nb  -0.000000  0.300000  0.850000
Ta617  Ta  0.025000  0.325000  0.875000
Ta618  Ta  0.050000  0.300000  0.850000
Nb600  Nb  0.075000  0.325000  0.875000
Mo630  Mo  0.100000  0.300000  0.850000
Ta619  Ta  0.125000  0.325000  0.875000
W658  W  0.150000  0.300000  0.850000
W659  W  0.175000  0.325000  0.875000
W660  W  0.200000  0.300000  0.850000
W661  W  0.225000  0.325000  0.875000
Mo631  Mo  0.250000  0.300000  0.850000
Nb601  Nb  0.275000  0.325000  0.875000
Mo632  Mo  0.300000  0.300000  0.850000
Mo633  Mo  0.325000  0.325000  0.875000
Mo634  Mo  0.350000  0.300000  0.850000
W662  W  0.375000  0.325000  0.875000
Nb602  Nb  0.400000  0.300000  0.850000
W663  W  0.425000  0.325000  0.875000
Ta620  Ta  0.450000  0.300000  0.850000
W664  W  0.475000  0.325000  0.875000
Nb603  Nb  -0.000000 -0.000000  0.900000
Ta621  Ta  0.025000  0.025000  0.925000
W665  W  0.050000 -0.000000  0.900000
W666  W  0.075000  0.025000  0.925000
Mo635  Mo  0.100000 -0.000000  0.900000
Ta622  Ta  0.125000  0.025000  0.925000
Mo636  Mo  0.150000 -0.000000  0.900000
Mo637  Mo  0.175000  0.025000  0.925000
Ta623  Ta  0.200000 -0.000000  0.900000
W667  W  0.225000  0.025000  0.925000
Mo638  Mo  0.250000 -0.000000  0.900000
W668  W  0.275000  0.025000  0.925000
Mo639  Mo  0.300000 -0.000000  0.900000
Ta624  Ta  0.325000  0.025000  0.925000
Ta625  Ta  0.350000 -0.000000  0.900000
Ta626  Ta  0.375000  0.025000  0.925000
Nb604  Nb  0.400000 -0.000000  0.900000
W669  W  0.425000  0.025000  0.925000
Nb605  Nb  0.450000 -0.000000  0.900000
Mo640  Mo  0.475000  0.025000  0.925000
Mo641  Mo  -0.000000  0.050000  0.900000
Ta627  Ta  0.025000  0.075000  0.925000
W670  W  0.050000  0.050000  0.900000
W671  W  0.075000  0.075000  0.925000
Ta628  Ta  0.100000  0.050000  0.900000
Mo642  Mo  0.125000  0.075000  0.925000
W672  W  0.150000  0.050000  0.900000
Nb606  Nb  0.175000  0.075000  0.925000
Nb607  Nb  0.200000  0.050000  0.900000
Ta629  Ta  0.225000  0.075000  0.925000
Ta630  Ta  0.250000  0.050000  0.900000
Mo643  Mo  0.275000  0.075000  0.925000
Ta631  Ta  0.300000  0.050000  0.900000
Ta632  Ta  0.325000  0.075000  0.925000
Nb608  Nb  0.350000  0.050000  0.900000
W673  W  0.375000  0.075000  0.925000
W674  W  0.400000  0.050000  0.900000
Mo644  Mo  0.425000  0.075000  0.925000
W675  W  0.450000  0.050000  0.900000
Nb609  Nb  0.475000  0.075000  0.925000
Nb610  Nb  -0.000000  0.100000  0.900000
Mo645  Mo  0.025000  0.125000  0.925000
Nb611  Nb  0.050000  0.100000  0.900000
Ta633  Ta  0.075000  0.125000  0.925000
Mo646  Mo  0.100000  0.100000  0.900000
Ta634  Ta  0.125000  0.125000  0.925000
Ta635  Ta  0.150000  0.100000  0.900000
Ta636  Ta  0.175000  0.125000  0.925000
Ta637  Ta  0.200000  0.100000  0.900000
Mo647  Mo  0.225000  0.125000  0.925000
Nb612  Nb  0.250000  0.100000  0.900000
Nb613  Nb  0.275000  0.125000  0.925000
W676  W  0.300000  0.100000  0.900000
Mo648  Mo  0.325000  0.125000  0.925000
W677  W  0.350000  0.100000  0.900000
Nb614  Nb  0.375000  0.125000  0.925000
W678  W  0.400000  0.100000  0.900000
Ta638  Ta  0.425000  0.125000  0.925000
Nb615  Nb  0.450000  0.100000  0.900000
Ta639  Ta  0.475000  0.125000  0.925000
W679  W  -0.000000  0.150000  0.900000
Mo649  Mo  0.025000  0.175000  0.925000
Nb616  Nb  0.050000  0.150000  0.900000
Ta640  Ta  0.075000  0.175000  0.925000
Nb617  Nb  0.100000  0.150000  0.900000
Nb618  Nb  0.125000  0.175000  0.925000
Ta641  Ta  0.150000  0.150000  0.900000
Mo650  Mo  0.175000  0.175000  0.925000
Ta642  Ta  0.200000  0.150000  0.900000
W680  W  0.225000  0.175000  0.925000
Nb619  Nb  0.250000  0.150000  0.900000
W681  W  0.275000  0.175000  0.925000
Ta643  Ta  0.300000  0.150000  0.900000
Nb620  Nb  0.325000  0.175000  0.925000
Ta644  Ta  0.350000  0.150000  0.900000
Mo651  Mo  0.375000  0.175000  0.925000
Ta645  Ta  0.400000  0.150000  0.900000
Nb621  Nb  0.425000  0.175000  0.925000
Mo652  Mo  0.450000  0.150000  0.900000
Mo653  Mo  0.475000  0.175000  0.925000
Mo654  Mo  -0.000000  0.200000  0.900000
W682  W  0.025000  0.225000  0.925000
Ta646  Ta  0.050000  0.200000  0.900000
Mo655  Mo  0.075000  0.225000  0.925000
Nb622  Nb  0.100000  0.200000  0.900000
Nb623  Nb  0.125000  0.225000  0.925000
W683  W  0.150000  0.200000  0.900000
W684  W  0.175000  0.225000  0.925000
Nb624  Nb  0.200000  0.200000  0.900000
Mo656  Mo  0.225000  0.225000  0.925000
Ta647  Ta  0.250000  0.200000  0.900000
W685  W  0.275000  0.225000  0.925000
W686  W  0.300000  0.200000  0.900000
Nb625  Nb  0.325000  0.225000  0.925000
W687  W  0.350000  0.200000  0.900000
Ta648  Ta  0.375000  0.225000  0.925000
Mo657  Mo  0.400000  0.200000  0.900000
Ta649  Ta  0.425000  0.225000  0.925000
Mo658  Mo  0.450000  0.200000  0.900000
Mo659  Mo  0.475000  0.225000  0.925000
Mo660  Mo  -0.000000  0.250000  0.900000
Ta650  Ta  0.025000  0.275000  0.925000
Nb626  Nb  0.050000  0.250000  0.900000
Mo661  Mo  0.075000  0.275000  0.925000
W688  W  0.100000  0.250000  0.900000
Mo662  Mo  0.125000  0.275000  0.925000
W689  W  0.150000  0.250000  0.900000
Nb627  Nb  0.175000  0.275000  0.925000
Ta651  Ta  0.200000  0.250000  0.900000
W690  W  0.225000  0.275000  0.925000
Mo663  Mo  0.250000  0.250000  0.900000
Ta652  Ta  0.275000  0.275000  0.925000
Mo664  Mo  0.300000  0.250000  0.900000
Nb628  Nb  0.325000  0.275000  0.925000
W691  W  0.350000  0.250000  0.900000
Mo665  Mo  0.375000  0.275000  0.925000
Nb629  Nb  0.400000  0.250000  0.900000
Nb630  Nb  0.425000  0.275000  0.925000
Nb631  Nb  0.450000  0.250000  0.900000
Mo666  Mo  0.475000  0.275000  0.925000
W692  W  -0.000000  0.300000  0.900000
Ta653  Ta  0.025000  0.325000  0.925000
W693  W  0.050000  0.300000  0.900000
W694  W  0.075000  0.325000  0.925000
Nb632  Nb  0.100000  0.300000  0.900000
W695  W  0.125000  0.325000  0.925000
W696  W  0.150000  0.300000  0.900000
Ta654  Ta  0.175000  0.325000  0.925000
Ta655  Ta  0.200000  0.300000  0.900000
W697  W  0.225000  0.325000  0.925000
Nb633  Nb  0.250000  0.300000  0.900000
Ta656  Ta  0.275000  0.325000  0.925000
Ta657  Ta  0.300000  0.300000  0.900000
Mo667  Mo  0.325000  0.325000  0.925000
W698  W  0.350000  0.300000  0.900000
Ta658  Ta  0.375000  0.325000  0.925000
Mo668  Mo  0.400000  0.300000  0.900000
Nb634  Nb  0.425000  0.325000  0.925000
W699  W  0.450000  0.300000  0.900000
Nb635  Nb  0.475000  0.325000  0.925000
W700  W  -0.000000 -0.000000  0.950000
Mo669  Mo  0.025000  0.025000  0.975000
Mo670  Mo  0.050000 -0.000000  0.950000
W701  W  0.075000  0.025000  0.975000
Mo671  Mo  0.100000 -0.000000  0.950000
Mo672  Mo  0.125000  0.025000  0.975000
Nb636  Nb  0.150000 -0.000000  0.950000
W702  W  0.175000  0.025000  0.975000
Nb637  Nb  0.200000 -0.000000  0.950000
W703  W  0.225000  0.025000  0.975000
Nb638  Nb  0.250000 -0.000000  0.950000
Mo673  Mo  0.275000  0.025000  0.975000
Ta659  Ta  0.300000 -0.000000  0.950000
Nb639  Nb  0.325000  0.025000  0.975000
Mo674  Mo  0.350000 -0.000000  0.950000
Ta660  Ta  0.375000  0.025000  0.975000
Ta661  Ta  0.400000 -0.000000  0.950000
Nb640  Nb  0.425000  0.025000  0.975000
Nb641  Nb  0.450000 -0.000000  0.950000
Ta662  Ta  0.475000  0.025000  0.975000
Mo675  Mo  -0.000000  0.050000  0.950000
Nb642  Nb  0.025000  0.075000  0.975000
Mo676  Mo  0.050000  0.050000  0.950000
Mo677  Mo  0.075000  0.075000  0.975000
Mo678  Mo  0.100000  0.050000  0.950000
Nb643  Nb  0.125000  0.075000  0.975000
W704  W  0.150000  0.050000  0.950000
Mo679  Mo  0.175000  0.075000  0.975000
Ta663  Ta  0.200000  0.050000  0.950000
Mo680  Mo  0.225000  0.075000  0.975000
Ta664  Ta  0.250000  0.050000  0.950000
Mo681  Mo  0.275000  0.075000  0.975000
W705  W  0.300000  0.050000  0.950000
Ta665  Ta  0.325000  0.075000  0.975000
W706  W  0.350000  0.050000  0.950000
Ta666  Ta  0.375000  0.075000  0.975000
Ta667  Ta  0.400000  0.050000  0.950000
W707  W  0.425000  0.075000  0.975000
W708  W  0.450000  0.050000  0.950000
W709  W  0.475000  0.075000  0.975000
Mo682  Mo  -0.000000  0.100000  0.950000
W710  W  0.025000  0.125000  0.975000
W711  W  0.050000  0.100000  0.950000
Ta668  Ta  0.075000  0.125000  0.975000
Mo683  Mo  0.100000  0.100000  0.950000
Mo684  Mo  0.125000  0.125000  0.975000
Nb644  Nb  0.150000  0.100000  0.950000
Ta669  Ta  0.175000  0.125000  0.975000
Mo685  Mo  0.200000  0.100000  0.950000
W712  W  0.225000  0.125000  0.975000
W713  W  0.250000  0.100000  0.950000
Mo686  Mo  0.275000  0.125000  0.975000
Mo687  Mo  0.300000  0.100000  0.950000
Nb645  Nb  0.325000  0.125000  0.975000
Mo688  Mo  0.350000  0.100000  0.950000
Ta670  Ta  0.375000  0.125000  0.975000
W714  W  0.400000  0.100000  0.950000
Ta671  Ta  0.425000  0.125000  0.975000
Nb646  Nb  0.450000  0.100000  0.950000
Nb647  Nb  0.475000  0.125000  0.975000
Ta672  Ta  -0.000000  0.150000  0.950000
Nb648  Nb  0.025000  0.175000  0.975000
W715  W  0.050000  0.150000  0.950000
W716  W  0.075000  0.175000  0.975000
W717  W  0.100000  0.150000  0.950000
Nb649  Nb  0.125000  0.175000  0.975000
W718  W  0.150000  0.150000  0.950000
Ta673  Ta  0.175000  0.175000  0.975000
Ta674  Ta  0.200000  0.150000  0.950000
Nb650  Nb  0.225000  0.175000  0.975000
Nb651  Nb  0.250000  0.150000  0.950000
Mo689  Mo  0.275000  0.175000  0.975000
Nb652  Nb  0.300000  0.150000  0.950000
W719  W  0.325000  0.175000  0.975000
Nb653  Nb  0.350000  0.150000  0.950000
Nb654  Nb  0.375000  0.175000  0.975000
Nb655  Nb  0.400000  0.150000  0.950000
Ta675  Ta  0.425000  0.175000  0.975000
Nb656  Nb  0.450000  0.150000  0.950000
Mo690  Mo  0.475000  0.175000  0.975000
W720  W  -0.000000  0.200000  0.950000
Mo691  Mo  0.025000  0.225000  0.975000
Nb657  Nb  0.050000  0.200000  0.950000
Mo692  Mo  0.075000  0.225000  0.975000
Nb658  Nb  0.100000  0.200000  0.950000
Ta676  Ta  0.125000  0.225000  0.975000
W721  W  0.150000  0.200000  0.950000
Ta677  Ta  0.175000  0.225000  0.975000
W722  W  0.200000  0.200000  0.950000
Ta678  Ta  0.225000  0.225000  0.975000
Mo693  Mo  0.250000  0.200000  0.950000
Ta679  Ta  0.275000  0.225000  0.975000
Ta680  Ta  0.300000  0.200000  0.950000
Nb659  Nb  0.325000  0.225000  0.975000
W723  W  0.350000  0.200000  0.950000
W724  W  0.375000  0.225000  0.975000
Ta681  Ta  0.400000  0.200000  0.950000
Ta682  Ta  0.425000  0.225000  0.975000
Nb660  Nb  0.450000  0.200000  0.950000
Nb661  Nb  0.475000  0.225000  0.975000
Nb662  Nb  -0.000000  0.250000  0.950000
Mo694  Mo  0.025000  0.275000  0.975000
Ta683  Ta  0.050000  0.250000  0.950000
Ta684  Ta  0.075000  0.275000  0.975000
W725  W  0.100000  0.250000  0.950000
Nb663  Nb  0.125000  0.275000  0.975000
Nb664  Nb  0.150000  0.250000  0.950000
Mo695  Mo  0.175000  0.275000  0.975000
Mo696  Mo  0.200000  0.250000  0.950000
W726  W  0.225000  0.275000  0.975000
Nb665  Nb  0.250000  0.250000  0.950000
Ta685  Ta  0.275000  0.275000  0.975000
W727  W  0.300000  0.250000  0.950000
Mo697  Mo  0.325000  0.275000  0.975000
W728  W  0.350000  0.250000  0.950000
Ta686  Ta  0.375000  0.275000  0.975000
Ta687  Ta  0.400000  0.250000  0.950000
Ta688  Ta  0.425000  0.275000  0.975000
Mo698  Mo  0.450000  0.250000  0.950000
Mo699  Mo  0.475000  0.275000  0.975000
W729  W  -0.000000  0.300000  0.950000
Ta689  Ta  0.025000  0.325000  0.975000
W730  W  0.050000  0.300000  0.950000
Nb666  Nb  0.075000  0.325000  0.975000
Ta690  Ta  0.100000  0.300000  0.950000
W731  W  0.125000  0.325000  0.975000
Nb667  Nb  0.150000  0.300000  0.950000
Ta691  Ta  0.175000  0.325000  0.975000
W732  W  0.200000  0.300000  0.950000
Nb668  Nb  0.225000  0.325000  0.975000
Nb669  Nb  0.250000  0.300000  0.950000
Ta692  Ta  0.275000  0.325000  0.975000
Ta693  Ta  0.300000  0.300000  0.950000
Mo700  Mo  0.325000  0.325000  0.975000
Nb670  Nb  0.350000  0.300000  0.950000
Ta694  Ta  0.375000  0.325000  0.975000
Ta695  Ta  0.400000  0.300000  0.950000
Mo701  Mo  0.425000  0.325000  0.975000
Nb671  Nb  0.450000  0.300000  0.950000
W733  W  0.475000  0.325000  0.975000
Nb672  Nb  -0.000000  0.350000  0.000000
Mo702  Mo  0.025000  0.375000  0.025000
W734  W  0.050000  0.350000  0.000000
W735  W  0.075000  0.375000  0.025000
Ta696  Ta  0.100000  0.350000  0.000000
W736  W  0.125000  0.375000  0.025000
Mo703  Mo  0.150000  0.350000  0.000000
W737  W  0.175000  0.375000  0.025000
W738  W  0.200000  0.350000  0.000000
W739  W  0.225000  0.375000  0.025000
Ta697  Ta  0.250000  0.350000  0.000000
W740  W  0.275000  0.375000  0.025000
Ta698  Ta  0.300000  0.350000  0.000000
Nb673  Nb  0.325000  0.375000  0.025000
Ta699  Ta  0.350000  0.350000  0.000000
W741  W  0.375000  0.375000  0.025000
Mo704  Mo  0.400000  0.350000  0.000000
W742  W  0.425000  0.375000  0.025000
Mo705  Mo  0.450000  0.350000  0.000000
Ta700  Ta  0.475000  0.375000  0.025000
Ta701  Ta  -0.000000  0.400000  0.000000
Mo706  Mo  0.025000  0.425000  0.025000
Mo707  Mo  0.050000  0.400000  0.000000
Ta702  Ta  0.075000  0.425000  0.025000
Ta703  Ta  0.100000  0.400000  0.000000
Nb674  Nb  0.125000  0.425000  0.025000
W743  W  0.150000  0.400000  0.000000
Ta704  Ta  0.175000  0.425000  0.025000
W744  W  0.200000  0.400000  0.000000
Nb675  Nb  0.225000  0.425000  0.025000
Nb676  Nb  0.250000  0.400000  0.000000
Nb677  Nb  0.275000  0.425000  0.025000
Ta705  Ta  0.300000  0.400000  0.000000
Ta706  Ta  0.325000  0.425000  0.025000
Ta707  Ta  0.350000  0.400000  0.000000
W745  W  0.375000  0.425000  0.025000
W746  W  0.400000  0.400000  0.000000
Ta708  Ta  0.425000  0.425000  0.025000
Nb678  Nb  0.450000  0.400000  0.000000
Mo708  Mo  0.475000  0.425000  0.025000
Mo709  Mo  -0.000000  0.450000  0.000000
W747  W  0.025000  0.475000  0.025000
W748  W  0.050000  0.450000  0.000000
Nb679  Nb  0.075000  0.475000  0.025000
Ta709  Ta  0.100000  0.450000  0.000000
Ta710  Ta  0.125000  0.475000  0.025000
Nb680  Nb  0.150000  0.450000  0.000000
Nb681  Nb  0.175000  0.475000  0.025000
Mo710  Mo  0.200000  0.450000  0.000000
Nb682  Nb  0.225000  0.475000  0.025000
Ta711  Ta  0.250000  0.450000  0.000000
Mo711  Mo  0.275000  0.475000  0.025000
Mo712  Mo  0.300000  0.450000  0.000000
Nb683  Nb  0.325000  0.475000  0.025000
W749  W  0.350000  0.450000  0.000000
Ta712  Ta  0.375000  0.475000  0.025000
Mo713  Mo  0.400000  0.450000  0.000000
Nb684  Nb  0.425000  0.475000  0.025000
Nb685  Nb  0.450000  0.450000  0.000000
W750  W  0.475000  0.475000  0.025000
Nb686  Nb  -0.000000  0.500000  0.000000
Mo714  Mo  0.025000  0.525000  0.025000
Nb687  Nb  0.050000  0.500000  0.000000
Nb688  Nb  0.075000  0.525000  0.025000
Nb689  Nb  0.100000  0.500000  0.000000
Mo715  Mo  0.125000  0.525000  0.025000
Ta713  Ta  0.150000  0.500000  0.000000
Ta714  Ta  0.175000  0.525000  0.025000
Mo716  Mo  0.200000  0.500000  0.000000
Nb690  Nb  0.225000  0.525000  0.025000
Mo717  Mo  0.250000  0.500000  0.000000
Nb691  Nb  0.275000  0.525000  0.025000
Mo718  Mo  0.300000  0.500000  0.000000
Ta715  Ta  0.325000  0.525000  0.025000
Ta716  Ta  0.350000  0.500000  0.000000
Mo719  Mo  0.375000  0.525000  0.025000
W751  W  0.400000  0.500000  0.000000
Ta717  Ta  0.425000  0.525000  0.025000
Ta718  Ta  0.450000  0.500000  0.000000
W752  W  0.475000  0.525000  0.025000
Mo720  Mo  -0.000000  0.550000  0.000000
Mo721  Mo  0.025000  0.575000  0.025000
Nb692  Nb  0.050000  0.550000  0.000000
W753  W  0.075000  0.575000  0.025000
Nb693  Nb  0.100000  0.550000  0.000000
Nb694  Nb  0.125000  0.575000  0.025000
W754  W  0.150000  0.550000  0.000000
Nb695  Nb  0.175000  0.575000  0.025000
W755  W  0.200000  0.550000  0.000000
Nb696  Nb  0.225000  0.575000  0.025000
W756  W  0.250000  0.550000  0.000000
Ta719  Ta  0.275000  0.575000  0.025000
Mo722  Mo  0.300000  0.550000  0.000000
Nb697  Nb  0.325000  0.575000  0.025000
Nb698  Nb  0.350000  0.550000  0.000000
Mo723  Mo  0.375000  0.575000  0.025000
Mo724  Mo  0.400000  0.550000  0.000000
Mo725  Mo  0.425000  0.575000  0.025000
Mo726  Mo  0.450000  0.550000  0.000000
Ta720  Ta  0.475000  0.575000  0.025000
W757  W  -0.000000  0.600000  0.000000
Ta721  Ta  0.025000  0.625000  0.025000
Mo727  Mo  0.050000  0.600000  0.000000
Mo728  Mo  0.075000  0.625000  0.025000
Nb699  Nb  0.100000  0.600000  0.000000
Ta722  Ta  0.125000  0.625000  0.025000
W758  W  0.150000  0.600000  0.000000
Nb700  Nb  0.175000  0.625000  0.025000
W759  W  0.200000  0.600000  0.000000
Ta723  Ta  0.225000  0.625000  0.025000
Mo729  Mo  0.250000  0.600000  0.000000
Nb701  Nb  0.275000  0.625000  0.025000
Nb702  Nb  0.300000  0.600000  0.000000
W760  W  0.325000  0.625000  0.025000
Mo730  Mo  0.350000  0.600000  0.000000
Ta724  Ta  0.375000  0.625000  0.025000
Nb703  Nb  0.400000  0.600000  0.000000
W761  W  0.425000  0.625000  0.025000
Ta725  Ta  0.450000  0.600000  0.000000
Mo731  Mo  0.475000  0.625000  0.025000
Nb704  Nb  -0.000000  0.650000  0.000000
Nb705  Nb  0.050000  0.650000  0.000000
Nb706  Nb  0.100000  0.650000  0.000000
Mo732  Mo  0.150000  0.650000  0.000000
Ta726  Ta  0.200000  0.650000  0.000000
W762  W  0.250000  0.650000  0.000000
Nb707  Nb  0.300000  0.650000  0.000000
Mo733  Mo  0.350000  0.650000  0.000000
W763  W  0.400000  0.650000  0.000000
Nb708  Nb  0.450000  0.650000  0.000000
Mo734  Mo  -0.000000  0.350000  0.050000
Ta727  Ta  0.025000  0.375000  0.075000
Nb709  Nb  0.050000  0.350000  0.050000
Ta728  Ta  0.075000  0.375000  0.075000
Mo735  Mo  0.100000  0.350000  0.050000
Mo736  Mo  0.125000  0.375000  0.075000
W764  W  0.150000  0.350000  0.050000
Mo737  Mo  0.175000  0.375000  0.075000
Mo738  Mo  0.200000  0.350000  0.050000
Nb710  Nb  0.225000  0.375000  0.075000
Ta729  Ta  0.250000  0.350000  0.050000
Nb711  Nb  0.275000  0.375000  0.075000
W765  W  0.300000  0.350000  0.050000
Nb712  Nb  0.325000  0.375000  0.075000
Ta730  Ta  0.350000  0.350000  0.050000
Ta731  Ta  0.375000  0.375000  0.075000
Mo739  Mo  0.400000  0.350000  0.050000
Nb713  Nb  0.425000  0.375000  0.075000
W766  W  0.450000  0.350000  0.050000
Nb714  Nb  0.475000  0.375000  0.075000
Ta732  Ta  -0.000000  0.400000  0.050000
Mo740  Mo  0.025000  0.425000  0.075000
W767  W  0.050000  0.400000  0.050000
Mo741  Mo  0.075000  0.425000  0.075000
Mo742  Mo  0.100000  0.400000  0.050000
Ta733  Ta  0.125000  0.425000  0.075000
W768  W  0.150000  0.400000  0.050000
Ta734  Ta  0.175000  0.425000  0.075000
Nb715  Nb  0.200000  0.400000  0.050000
Ta735  Ta  0.225000  0.425000  0.075000
Nb716  Nb  0.250000  0.400000  0.050000
W769  W  0.275000  0.425000  0.075000
Nb717  Nb  0.300000  0.400000  0.050000
Ta736  Ta  0.325000  0.425000  0.075000
Nb718  Nb  0.350000  0.400000  0.050000
Ta737  Ta  0.375000  0.425000  0.075000
Nb719  Nb  0.400000  0.400000  0.050000
Mo743  Mo  0.425000  0.425000  0.075000
Mo744  Mo  0.450000  0.400000  0.050000
W770  W  0.475000  0.425000  0.075000
Ta738  Ta  -0.000000  0.450000  0.050000
Nb720  Nb  0.025000  0.475000  0.075000
W771  W  0.050000  0.450000  0.050000
W772  W  0.075000  0.475000  0.075000
Mo745  Mo  0.100000  0.450000  0.050000
Ta739  Ta  0.125000  0.475000  0.075000
W773  W  0.150000  0.450000  0.050000
Nb721  Nb  0.175000  0.475000  0.075000
Mo746  Mo  0.200000  0.450000  0.050000
Nb722  Nb  0.225000  0.475000  0.075000
Mo747  Mo  0.250000  0.450000  0.050000
Ta740  Ta  0.275000  0.475000  0.075000
W774  W  0.300000  0.450000  0.050000
Mo748  Mo  0.325000  0.475000  0.075000
W775  W  0.350000  0.450000  0.050000
Mo749  Mo  0.375000  0.475000  0.075000
W776  W  0.400000  0.450000  0.050000
Mo750  Mo  0.425000  0.475000  0.075000
Ta741  Ta  0.450000  0.450000  0.050000
W777  W  0.475000  0.475000  0.075000
Ta742  Ta  -0.000000  0.500000  0.050000
Mo751  Mo  0.025000  0.525000  0.075000
Ta743  Ta  0.050000  0.500000  0.050000
Nb723  Nb  0.075000  0.525000  0.075000
Ta744  Ta  0.100000  0.500000  0.050000
Mo752  Mo  0.125000  0.525000  0.075000
W778  W  0.150000  0.500000  0.050000
W779  W  0.175000  0.525000  0.075000
W780  W  0.200000  0.500000  0.050000
W781  W  0.225000  0.525000  0.075000
Mo753  Mo  0.250000  0.500000  0.050000
W782  W  0.275000  0.525000  0.075000
Nb724  Nb  0.300000  0.500000  0.050000
Mo754  Mo  0.325000  0.525000  0.075000
W783  W  0.350000  0.500000  0.050000
Ta745  Ta  0.375000  0.525000  0.075000
W784  W  0.400000  0.500000  0.050000
Ta746  Ta  0.425000  0.525000  0.075000
Mo755  Mo  0.450000  0.500000  0.050000
Mo756  Mo  0.475000  0.525000  0.075000
Nb725  Nb  -0.000000  0.550000  0.050000
W785  W  0.025000  0.575000  0.075000
Mo757  Mo  0.050000  0.550000  0.050000
Nb726  Nb  0.075000  0.575000  0.075000
W786  W  0.100000  0.550000  0.050000
Ta747  Ta  0.125000  0.575000  0.075000
Nb727  Nb  0.150000  0.550000  0.050000
Ta748  Ta  0.175000  0.575000  0.075000
Nb728  Nb  0.200000  0.550000  0.050000
Mo758  Mo  0.225000  0.575000  0.075000
W787  W  0.250000  0.550000  0.050000
Mo759  Mo  0.275000  0.575000  0.075000
Mo760  Mo  0.300000  0.550000  0.050000
Ta749  Ta  0.325000  0.575000  0.075000
W788  W  0.350000  0.550000  0.050000
Nb729  Nb  0.375000  0.575000  0.075000
W789  W  0.400000  0.550000  0.050000
Nb730  Nb  0.425000  0.575000  0.075000
Mo761  Mo  0.450000  0.550000  0.050000
Mo762  Mo  0.475000  0.575000  0.075000
W790  W  -0.000000  0.600000  0.050000
Ta750  Ta  0.025000  0.625000  0.075000
Ta751  Ta  0.050000  0.600000  0.050000
Mo763  Mo  0.075000  0.625000  0.075000
W791  W  0.100000  0.600000  0.050000
Mo764  Mo  0.125000  0.625000  0.075000
Nb731  Nb  0.150000  0.600000  0.050000
Nb732  Nb  0.175000  0.625000  0.075000
Ta752  Ta  0.200000  0.600000  0.050000
Mo765  Mo  0.225000  0.625000  0.075000
Mo766  Mo  0.250000  0.600000  0.050000
Nb733  Nb  0.275000  0.625000  0.075000
W792  W  0.300000  0.600000  0.050000
Mo767  Mo  0.325000  0.625000  0.075000
W793  W  0.350000  0.600000  0.050000
Ta753  Ta  0.375000  0.625000  0.075000
Mo768  Mo  0.400000  0.600000  0.050000
W794  W  0.425000  0.625000  0.075000
Nb734  Nb  0.450000  0.600000  0.050000
W795  W  0.475000  0.625000  0.075000
Nb735  Nb  -0.000000  0.650000  0.050000
Mo769  Mo  0.050000  0.650000  0.050000
W796  W  0.100000  0.650000  0.050000
Mo770  Mo  0.150000  0.650000  0.050000
Mo771  Mo  0.200000  0.650000  0.050000
Nb736  Nb  0.250000  0.650000  0.050000
Mo772  Mo  0.300000  0.650000  0.050000
Ta754  Ta  0.350000  0.650000  0.050000
Nb737  Nb  0.400000  0.650000  0.050000
Ta755  Ta  0.450000  0.650000  0.050000
Nb738  Nb  -0.000000  0.350000  0.100000
Ta756  Ta  0.025000  0.375000  0.125000
W797  W  0.050000  0.350000  0.100000
W798  W  0.075000  0.375000  0.125000
Ta757  Ta  0.100000  0.350000  0.100000
Nb739  Nb  0.125000  0.375000  0.125000
Ta758  Ta  0.150000  0.350000  0.100000
W799  W  0.175000  0.375000  0.125000
Nb740  Nb  0.200000  0.350000  0.100000
W800  W  0.225000  0.375000  0.125000
Mo773  Mo  0.250000  0.350000  0.100000
Mo774  Mo  0.275000  0.375000  0.125000
Nb741  Nb  0.300000  0.350000  0.100000
Nb742  Nb  0.325000  0.375000  0.125000
Ta759  Ta  0.350000  0.350000  0.100000
Ta760  Ta  0.375000  0.375000  0.125000
Mo775  Mo  0.400000  0.350000  0.100000
Ta761  Ta  0.425000  0.375000  0.125000
Mo776  Mo  0.450000  0.350000  0.100000
W801  W  0.475000  0.375000  0.125000
Ta762  Ta  -0.000000  0.400000  0.100000
Mo777  Mo  0.025000  0.425000  0.125000
Ta763  Ta  0.050000  0.400000  0.100000
Nb743  Nb  0.075000  0.425000  0.125000
Nb744  Nb  0.100000  0.400000  0.100000
Mo778  Mo  0.125000  0.425000  0.125000
Nb745  Nb  0.150000  0.400000  0.100000
Mo779  Mo  0.175000  0.425000  0.125000
Ta764  Ta  0.200000  0.400000  0.100000
Nb746  Nb  0.225000  0.425000  0.125000
W802  W  0.250000  0.400000  0.100000
Nb747  Nb  0.275000  0.425000  0.125000
Nb748  Nb  0.300000  0.400000  0.100000
Mo780  Mo  0.325000  0.425000  0.125000
Ta765  Ta  0.350000  0.400000  0.100000
W803  W  0.375000  0.425000  0.125000
Nb749  Nb  0.400000  0.400000  0.100000
Mo781  Mo  0.425000  0.425000  0.125000
Ta766  Ta  0.450000  0.400000  0.100000
Nb750  Nb  0.475000  0.425000  0.125000
Nb751  Nb  -0.000000  0.450000  0.100000
Ta767  Ta  0.025000  0.475000  0.125000
Mo782  Mo  0.050000  0.450000  0.100000
W804  W  0.075000  0.475000  0.125000
W805  W  0.100000  0.450000  0.100000
Ta768  Ta  0.125000  0.475000  0.125000
W806  W  0.150000  0.450000  0.100000
Ta769  Ta  0.175000  0.475000  0.125000
W807  W  0.200000  0.450000  0.100000
Mo783  Mo  0.225000  0.475000  0.125000
W808  W  0.250000  0.450000  0.100000
Ta770  Ta  0.275000  0.475000  0.125000
Mo784  Mo  0.300000  0.450000  0.100000
Nb752  Nb  0.325000  0.475000  0.125000
Ta771  Ta  0.350000  0.450000  0.100000
Nb753  Nb  0.375000  0.475000  0.125000
Nb754  Nb  0.400000  0.450000  0.100000
Mo785  Mo  0.425000  0.475000  0.125000
Nb755  Nb  0.450000  0.450000  0.100000
Nb756  Nb  0.475000  0.475000  0.125000
Ta772  Ta  -0.000000  0.500000  0.100000
Nb757  Nb  0.025000  0.525000  0.125000
Mo786  Mo  0.050000  0.500000  0.100000
Mo787  Mo  0.075000  0.525000  0.125000
W809  W  0.100000  0.500000  0.100000
Nb758  Nb  0.125000  0.525000  0.125000
Nb759  Nb  0.150000  0.500000  0.100000
Nb760  Nb  0.175000  0.525000  0.125000
Mo788  Mo  0.200000  0.500000  0.100000
Mo789  Mo  0.225000  0.525000  0.125000
Nb761  Nb  0.250000  0.500000  0.100000
Ta773  Ta  0.275000  0.525000  0.125000
Mo790  Mo  0.300000  0.500000  0.100000
Mo791  Mo  0.325000  0.525000  0.125000
Mo792  Mo  0.350000  0.500000  0.100000
W810  W  0.375000  0.525000  0.125000
W811  W  0.400000  0.500000  0.100000
Ta774  Ta  0.425000  0.525000  0.125000
W812  W  0.450000  0.500000  0.100000
Ta775  Ta  0.475000  0.525000  0.125000
Nb762  Nb  -0.000000  0.550000  0.100000
Nb763  Nb  0.025000  0.575000  0.125000
Mo793  Mo  0.050000  0.550000  0.100000
Ta776  Ta  0.075000  0.575000  0.125000
Mo794  Mo  0.100000  0.550000  0.100000
Ta777  Ta  0.125000  0.575000  0.125000
W813  W  0.150000  0.550000  0.100000
W814  W  0.175000  0.575000  0.125000
W815  W  0.200000  0.550000  0.100000
Ta778  Ta  0.225000  0.575000  0.125000
Mo795  Mo  0.250000  0.550000  0.100000
Nb764  Nb  0.275000  0.575000  0.125000
Ta779  Ta  0.300000  0.550000  0.100000
Nb765  Nb  0.325000  0.575000  0.125000
Ta780  Ta  0.350000  0.550000  0.100000
Nb766  Nb  0.375000  0.575000  0.125000
W816  W  0.400000  0.550000  0.100000
Ta781  Ta  0.425000  0.575000  0.125000
Mo796  Mo  0.450000  0.550000  0.100000
W817  W  0.475000  0.575000  0.125000
Nb767  Nb  -0.000000  0.600000  0.100000
Ta782  Ta  0.025000  0.625000  0.125000
Ta783  Ta  0.050000  0.600000  0.100000
Mo797  Mo  0.075000  0.625000  0.125000
Ta784  Ta  0.100000  0.600000  0.100000
W818  W  0.125000  0.625000  0.125000
Mo798  Mo  0.150000  0.600000  0.100000
Ta785  Ta  0.175000  0.625000  0.125000
Ta786  Ta  0.200000  0.600000  0.100000
Ta787  Ta  0.225000  0.625000  0.125000
Nb768  Nb  0.250000  0.600000  0.100000
Ta788  Ta  0.275000  0.625000  0.125000
Nb769  Nb  0.300000  0.600000  0.100000
Ta789  Ta  0.325000  0.625000  0.125000
Nb770  Nb  0.350000  0.600000  0.100000
Nb771  Nb  0.375000  0.625000  0.125000
Nb772  Nb  0.400000  0.600000  0.100000
W819  W  0.425000  0.625000  0.125000
W820  W  0.450000  0.600000  0.100000
W821  W  0.475000  0.625000  0.125000
Ta790  Ta  -0.000000  0.650000  0.100000
W822  W  0.050000  0.650000  0.100000
W823  W  0.100000  0.650000  0.100000
W824  W  0.150000  0.650000  0.100000
Ta791  Ta  0.200000  0.650000  0.100000
Ta792  Ta  0.250000  0.650000  0.100000
Ta793  Ta  0.300000  0.650000  0.100000
Mo799  Mo  0.350000  0.650000  0.100000
W825  W  0.400000  0.650000  0.100000
Ta794  Ta  0.450000  0.650000  0.100000
Ta795  Ta  -0.000000  0.350000  0.150000
Mo800  Mo  0.025000  0.375000  0.175000
Ta796  Ta  0.050000  0.350000  0.150000
W826  W  0.075000  0.375000  0.175000
Mo801  Mo  0.100000  0.350000  0.150000
Mo802  Mo  0.125000  0.375000  0.175000
Nb773  Nb  0.150000  0.350000  0.150000
Ta797  Ta  0.175000  0.375000  0.175000
Mo803  Mo  0.200000  0.350000  0.150000
W827  W  0.225000  0.375000  0.175000
W828  W  0.250000  0.350000  0.150000
Ta798  Ta  0.275000  0.375000  0.175000
W829  W  0.300000  0.350000  0.150000
Nb774  Nb  0.325000  0.375000  0.175000
W830  W  0.350000  0.350000  0.150000
W831  W  0.375000  0.375000  0.175000
Ta799  Ta  0.400000  0.350000  0.150000
W832  W  0.425000  0.375000  0.175000
Nb775  Nb  0.450000  0.350000  0.150000
W833  W  0.475000  0.375000  0.175000
Ta800  Ta  -0.000000  0.400000  0.150000
Mo804  Mo  0.025000  0.425000  0.175000
W834  W  0.050000  0.400000  0.150000
Ta801  Ta  0.075000  0.425000  0.175000
Nb776  Nb  0.100000  0.400000  0.150000
W835  W  0.125000  0.425000  0.175000
Mo805  Mo  0.150000  0.400000  0.150000
W836  W  0.175000  0.425000  0.175000
Ta802  Ta  0.200000  0.400000  0.150000
Ta803  Ta  0.225000  0.425000  0.175000
Mo806  Mo  0.250000  0.400000  0.150000
W837  W  0.275000  0.425000  0.175000
Nb777  Nb  0.300000  0.400000  0.150000
Ta804  Ta  0.325000  0.425000  0.175000
W838  W  0.350000  0.400000  0.150000
Mo807  Mo  0.375000  0.425000  0.175000
W839  W  0.400000  0.400000  0.150000
W840  W  0.425000  0.425000  0.175000
Nb778  Nb  0.450000  0.400000  0.150000
Mo808  Mo  0.475000  0.425000  0.175000
W841  W  -0.000000  0.450000  0.150000
Mo809  Mo  0.025000  0.475000  0.175000
Mo810  Mo  0.050000  0.450000  0.150000
Mo811  Mo  0.075000  0.475000  0.175000
Mo812  Mo  0.100000  0.450000  0.150000
Nb779  Nb  0.125000  0.475000  0.175000
W842  W  0.150000  0.450000  0.150000
Nb780  Nb  0.175000  0.475000  0.175000
W843  W  0.200000  0.450000  0.150000
Nb781  Nb  0.225000  0.475000  0.175000
Ta805  Ta  0.250000  0.450000  0.150000
W844  W  0.275000  0.475000  0.175000
Mo813  Mo  0.300000  0.450000  0.150000
Nb782  Nb  0.325000  0.475000  0.175000
Ta806  Ta  0.350000  0.450000  0.150000
Mo814  Mo  0.375000  0.475000  0.175000
Ta807  Ta  0.400000  0.450000  0.150000
W845  W  0.425000  0.475000  0.175000
Mo815  Mo  0.450000  0.450000  0.150000
Nb783  Nb  0.475000  0.475000  0.175000
Ta808  Ta  -0.000000  0.500000  0.150000
Nb784  Nb  0.025000  0.525000  0.175000
W846  W  0.050000  0.500000  0.150000
Ta809  Ta  0.075000  0.525000  0.175000
Nb785  Nb  0.100000  0.500000  0.150000
Mo816  Mo  0.125000  0.525000  0.175000
Nb786  Nb  0.150000  0.500000  0.150000
W847  W  0.175000  0.525000  0.175000
Ta810  Ta  0.200000  0.500000  0.150000
W848  W  0.225000  0.525000  0.175000
Ta811  Ta  0.250000  0.500000  0.150000
Mo817  Mo  0.275000  0.525000  0.175000
Mo818  Mo  0.300000  0.500000  0.150000
Mo819  Mo  0.325000  0.525000  0.175000
Nb787  Nb  0.350000  0.500000  0.150000
Nb788  Nb  0.375000  0.525000  0.175000
W849  W  0.400000  0.500000  0.150000
Ta812  Ta  0.425000  0.525000  0.175000
Ta813  Ta  0.450000  0.500000  0.150000
Ta814  Ta  0.475000  0.525000  0.175000
Nb789  Nb  -0.000000  0.550000  0.150000
Nb790  Nb  0.025000  0.575000  0.175000
W850  W  0.050000  0.550000  0.150000
W851  W  0.075000  0.575000  0.175000
Nb791  Nb  0.100000  0.550000  0.150000
Ta815  Ta  0.125000  0.575000  0.175000
Ta816  Ta  0.150000  0.550000  0.150000
Nb792  Nb  0.175000  0.575000  0.175000
Mo820  Mo  0.200000  0.550000  0.150000
Mo821  Mo  0.225000  0.575000  0.175000
Ta817  Ta  0.250000  0.550000  0.150000
Mo822  Mo  0.275000  0.575000  0.175000
W852  W  0.300000  0.550000  0.150000
W853  W  0.325000  0.575000  0.175000
Ta818  Ta  0.350000  0.550000  0.150000
Ta819  Ta  0.375000  0.575000  0.175000
Mo823  Mo  0.400000  0.550000  0.150000
Nb793  Nb  0.425000  0.575000  0.175000
W854  W  0.450000  0.550000  0.150000
Ta820  Ta  0.475000  0.575000  0.175000
Ta821  Ta  -0.000000  0.600000  0.150000
Nb794  Nb  0.025000  0.625000  0.175000
Ta822  Ta  0.050000  0.600000  0.150000
Nb795  Nb  0.075000  0.625000  0.175000
W855  W  0.100000  0.600000  0.150000
W856  W  0.125000  0.625000  0.175000
Mo824  Mo  0.150000  0.600000  0.150000
W857  W  0.175000  0.625000  0.175000
Ta823  Ta  0.200000  0.600000  0.150000
Ta824  Ta  0.225000  0.625000  0.175000
W858  W  0.250000  0.600000  0.150000
Mo825  Mo  0.275000  0.625000  0.175000
W859  W  0.300000  0.600000  0.150000
Ta825  Ta  0.325000  0.625000  0.175000
Mo826  Mo  0.350000  0.600000  0.150000
W860  W  0.375000  0.625000  0.175000
Ta826  Ta  0.400000  0.600000  0.150000
W861  W  0.425000  0.625000  0.175000
Nb796  Nb  0.450000  0.600000  0.150000
Ta827  Ta  0.475000  0.625000  0.175000
Nb797  Nb  -0.000000  0.650000  0.150000
Nb798  Nb  0.050000  0.650000  0.150000
Nb799  Nb  0.100000  0.650000  0.150000
W862  W  0.150000  0.650000  0.150000
Nb800  Nb  0.200000  0.650000  0.150000
W863  W  0.250000  0.650000  0.150000
Nb801  Nb  0.300000  0.650000  0.150000
Ta828  Ta  0.350000  0.650000  0.150000
Ta829  Ta  0.400000  0.650000  0.150000
Mo827  Mo  0.450000  0.650000  0.150000
Nb802  Nb  -0.000000  0.350000  0.200000
Nb803  Nb  0.025000  0.375000  0.225000
Nb804  Nb  0.050000  0.350000  0.200000
Ta830  Ta  0.075000  0.375000  0.225000
Nb805  Nb  0.100000  0.350000  0.200000
Ta831  Ta  0.125000  0.375000  0.225000
W864  W  0.150000  0.350000  0.200000
Ta832  Ta  0.175000  0.375000  0.225000
Mo828  Mo  0.200000  0.350000  0.200000
Mo829  Mo  0.225000  0.375000  0.225000
Ta833  Ta  0.250000  0.350000  0.200000
Nb806  Nb  0.275000  0.375000  0.225000
Nb807  Nb  0.300000  0.350000  0.200000
Mo830  Mo  0.325000  0.375000  0.225000
Mo831  Mo  0.350000  0.350000  0.200000
Mo832  Mo  0.375000  0.375000  0.225000
Nb808  Nb  0.400000  0.350000  0.200000
W865  W  0.425000  0.375000  0.225000
Nb809  Nb  0.450000  0.350000  0.200000
W866  W  0.475000  0.375000  0.225000
Ta834  Ta  -0.000000  0.400000  0.200000
Nb810  Nb  0.025000  0.425000  0.225000
Ta835  Ta  0.050000  0.400000  0.200000
Ta836  Ta  0.075000  0.425000  0.225000
Mo833  Mo  0.100000  0.400000  0.200000
Mo834  Mo  0.125000  0.425000  0.225000
Mo835  Mo  0.150000  0.400000  0.200000
W867  W  0.175000  0.425000  0.225000
Nb811  Nb  0.200000  0.400000  0.200000
Mo836  Mo  0.225000  0.425000  0.225000
Ta837  Ta  0.250000  0.400000  0.200000
W868  W  0.275000  0.425000  0.225000
Nb812  Nb  0.300000  0.400000  0.200000
W869  W  0.325000  0.425000  0.225000
W870  W  0.350000  0.400000  0.200000
Mo837  Mo  0.375000  0.425000  0.225000
Nb813  Nb  0.400000  0.400000  0.200000
Mo838  Mo  0.425000  0.425000  0.225000
Nb814  Nb  0.450000  0.400000  0.200000
Ta838  Ta  0.475000  0.425000  0.225000
Mo839  Mo  -0.000000  0.450000  0.200000
Nb815  Nb  0.025000  0.475000  0.225000
Mo840  Mo  0.050000  0.450000  0.200000
W871  W  0.075000  0.475000  0.225000
Mo841  Mo  0.100000  0.450000  0.200000
W872  W  0.125000  0.475000  0.225000
W873  W  0.150000  0.450000  0.200000
Mo842  Mo  0.175000  0.475000  0.225000
Ta839  Ta  0.200000  0.450000  0.200000
Nb816  Nb  0.225000  0.475000  0.225000
W874  W  0.250000  0.450000  0.200000
Nb817  Nb  0.275000  0.475000  0.225000
Mo843  Mo  0.300000  0.450000  0.200000
Mo844  Mo  0.325000  0.475000  0.225000
Ta840  Ta  0.350000  0.450000  0.200000
Nb818  Nb  0.375000  0.475000  0.225000
Mo845  Mo  0.400000  0.450000  0.200000
W875  W  0.425000  0.475000  0.225000
Nb819  Nb  0.450000  0.450000  0.200000
Mo846  Mo  0.475000  0.475000  0.225000
Ta841  Ta  -0.000000  0.500000  0.200000
W876  W  0.025000  0.525000  0.225000
Mo847  Mo  0.050000  0.500000  0.200000
Mo848  Mo  0.075000  0.525000  0.225000
Nb820  Nb  0.100000  0.500000  0.200000
Ta842  Ta  0.125000  0.525000  0.225000
Nb821  Nb  0.150000  0.500000  0.200000
W877  W  0.175000  0.525000  0.225000
Ta843  Ta  0.200000  0.500000  0.200000
Nb822  Nb  0.225000  0.525000  0.225000
Nb823  Nb  0.250000  0.500000  0.200000
Nb824  Nb  0.275000  0.525000  0.225000
Nb825  Nb  0.300000  0.500000  0.200000
Ta844  Ta  0.325000  0.525000  0.225000
Ta845  Ta  0.350000  0.500000  0.200000
Mo849  Mo  0.375000  0.525000  0.225000
Mo850  Mo  0.400000  0.500000  0.200000
W878  W  0.425000  0.525000  0.225000
Mo851  Mo  0.450000  0.500000  0.200000
W879  W  0.475000  0.525000  0.225000
Mo852  Mo  -0.000000  0.550000  0.200000
W880  W  0.025000  0.575000  0.225000
Ta846  Ta  0.050000  0.550000  0.200000
Nb826  Nb  0.075000  0.575000  0.225000
Mo853  Mo  0.100000  0.550000  0.200000
Mo854  Mo  0.125000  0.575000  0.225000
Mo855  Mo  0.150000  0.550000  0.200000
Ta847  Ta  0.175000  0.575000  0.225000
Mo856  Mo  0.200000  0.550000  0.200000
W881  W  0.225000  0.575000  0.225000
Nb827  Nb  0.250000  0.550000  0.200000
W882  W  0.275000  0.575000  0.225000
W883  W  0.300000  0.550000  0.200000
Ta848  Ta  0.325000  0.575000  0.225000
Ta849  Ta  0.350000  0.550000  0.200000
Ta850  Ta  0.375000  0.575000  0.225000
Mo857  Mo  0.400000  0.550000  0.200000
Nb828  Nb  0.425000  0.575000  0.225000
W884  W  0.450000  0.550000  0.200000
Ta851  Ta  0.475000  0.575000  0.225000
Nb829  Nb  -0.000000  0.600000  0.200000
Mo858  Mo  0.025000  0.625000  0.225000
W885  W  0.050000  0.600000  0.200000
Nb830  Nb  0.075000  0.625000  0.225000
W886  W  0.100000  0.600000  0.200000
Nb831  Nb  0.125000  0.625000  0.225000
W887  W  0.150000  0.600000  0.200000
Mo859  Mo  0.175000  0.625000  0.225000
Nb832  Nb  0.200000  0.600000  0.200000
Ta852  Ta  0.225000  0.625000  0.225000
W888  W  0.250000  0.600000  0.200000
Mo860  Mo  0.275000  0.625000  0.225000
Mo861  Mo  0.300000  0.600000  0.200000
Mo862  Mo  0.325000  0.625000  0.225000
Mo863  Mo  0.350000  0.600000  0.200000
Nb833  Nb  0.375000  0.625000  0.225000
Nb834  Nb  0.400000  0.600000  0.200000
W889  W  0.425000  0.625000  0.225000
Nb835  Nb  0.450000  0.600000  0.200000
Mo864  Mo  0.475000  0.625000  0.225000
Mo865  Mo  -0.000000  0.650000  0.200000
Nb836  Nb  0.050000  0.650000  0.200000
Ta853  Ta  0.100000  0.650000  0.200000
Ta854  Ta  0.150000  0.650000  0.200000
Mo866  Mo  0.200000  0.650000  0.200000
Ta855  Ta  0.250000  0.650000  0.200000
Mo867  Mo  0.300000  0.650000  0.200000
W890  W  0.350000  0.650000  0.200000
W891  W  0.400000  0.650000  0.200000
Nb837  Nb  0.450000  0.650000  0.200000
W892  W  -0.000000  0.350000  0.250000
W893  W  0.025000  0.375000  0.275000
W894  W  0.050000  0.350000  0.250000
W895  W  0.075000  0.375000  0.275000
W896  W  0.100000  0.350000  0.250000
W897  W  0.125000  0.375000  0.275000
Ta856  Ta  0.150000  0.350000  0.250000
Mo868  Mo  0.175000  0.375000  0.275000
Ta857  Ta  0.200000  0.350000  0.250000
W898  W  0.225000  0.375000  0.275000
Mo869  Mo  0.250000  0.350000  0.250000
Ta858  Ta  0.275000  0.375000  0.275000
W899  W  0.300000  0.350000  0.250000
Ta859  Ta  0.325000  0.375000  0.275000
Ta860  Ta  0.350000  0.350000  0.250000
Ta861  Ta  0.375000  0.375000  0.275000
W900  W  0.400000  0.350000  0.250000
Nb838  Nb  0.425000  0.375000  0.275000
Mo870  Mo  0.450000  0.350000  0.250000
Ta862  Ta  0.475000  0.375000  0.275000
W901  W  -0.000000  0.400000  0.250000
Mo871  Mo  0.025000  0.425000  0.275000
Mo872  Mo  0.050000  0.400000  0.250000
Nb839  Nb  0.075000  0.425000  0.275000
Mo873  Mo  0.100000  0.400000  0.250000
Ta863  Ta  0.125000  0.425000  0.275000
W902  W  0.150000  0.400000  0.250000
Ta864  Ta  0.175000  0.425000  0.275000
Mo874  Mo  0.200000  0.400000  0.250000
Nb840  Nb  0.225000  0.425000  0.275000
Ta865  Ta  0.250000  0.400000  0.250000
Nb841  Nb  0.275000  0.425000  0.275000
Nb842  Nb  0.300000  0.400000  0.250000
Nb843  Nb  0.325000  0.425000  0.275000
Ta866  Ta  0.350000  0.400000  0.250000
W903  W  0.375000  0.425000  0.275000
Mo875  Mo  0.400000  0.400000  0.250000
W904  W  0.425000  0.425000  0.275000
Nb844  Nb  0.450000  0.400000  0.250000
W905  W  0.475000  0.425000  0.275000
Ta867  Ta  -0.000000  0.450000  0.250000
Nb845  Nb  0.025000  0.475000  0.275000
W906  W  0.050000  0.450000  0.250000
Mo876  Mo  0.075000  0.475000  0.275000
Ta868  Ta  0.100000  0.450000  0.250000
Ta869  Ta  0.125000  0.475000  0.275000
Ta870  Ta  0.150000  0.450000  0.250000
W907  W  0.175000  0.475000  0.275000
Mo877  Mo  0.200000  0.450000  0.250000
Nb846  Nb  0.225000  0.475000  0.275000
Ta871  Ta  0.250000  0.450000  0.250000
W908  W  0.275000  0.475000  0.275000
Mo878  Mo  0.300000  0.450000  0.250000
W909  W  0.325000  0.475000  0.275000
Nb847  Nb  0.350000  0.450000  0.250000
Ta872  Ta  0.375000  0.475000  0.275000
Mo879  Mo  0.400000  0.450000  0.250000
Mo880  Mo  0.425000  0.475000  0.275000
Nb848  Nb  0.450000  0.450000  0.250000
Mo881  Mo  0.475000  0.475000  0.275000
Ta873  Ta  -0.000000  0.500000  0.250000
Mo882  Mo  0.025000  0.525000  0.275000
Nb849  Nb  0.050000  0.500000  0.250000
Mo883  Mo  0.075000  0.525000  0.275000
Mo884  Mo  0.100000  0.500000  0.250000
Nb850  Nb  0.125000  0.525000  0.275000
W910  W  0.150000  0.500000  0.250000
Nb851  Nb  0.175000  0.525000  0.275000
W911  W  0.200000  0.500000  0.250000
W912  W  0.225000  0.525000  0.275000
Nb852  Nb  0.250000  0.500000  0.250000
Mo885  Mo  0.275000  0.525000  0.275000
Nb853  Nb  0.300000  0.500000  0.250000
Nb854  Nb  0.325000  0.525000  0.275000
W913  W  0.350000  0.500000  0.250000
Ta874  Ta  0.375000  0.525000  0.275000
Ta875  Ta  0.400000  0.500000  0.250000
Mo886  Mo  0.425000  0.525000  0.275000
Ta876  Ta  0.450000  0.500000  0.250000
Mo887  Mo  0.475000  0.525000  0.275000
Nb855  Nb  -0.000000  0.550000  0.250000
W914  W  0.025000  0.575000  0.275000
Ta877  Ta  0.050000  0.550000  0.250000
W915  W  0.075000  0.575000  0.275000
Nb856  Nb  0.100000  0.550000  0.250000
Nb857  Nb  0.125000  0.575000  0.275000
Mo888  Mo  0.150000  0.550000  0.250000
Mo889  Mo  0.175000  0.575000  0.275000
Mo890  Mo  0.200000  0.550000  0.250000
Ta878  Ta  0.225000  0.575000  0.275000
Ta879  Ta  0.250000  0.550000  0.250000
Nb858  Nb  0.275000  0.575000  0.275000
Nb859  Nb  0.300000  0.550000  0.250000
W916  W  0.325000  0.575000  0.275000
W917  W  0.350000  0.550000  0.250000
Mo891  Mo  0.375000  0.575000  0.275000
Nb860  Nb  0.400000  0.550000  0.250000
Mo892  Mo  0.425000  0.575000  0.275000
W918  W  0.450000  0.550000  0.250000
W919  W  0.475000  0.575000  0.275000
W920  W  -0.000000  0.600000  0.250000
Ta880  Ta  0.025000  0.625000  0.275000
Ta881  Ta  0.050000  0.600000  0.250000
Mo893  Mo  0.075000  0.625000  0.275000
Nb861  Nb  0.100000  0.600000  0.250000
Mo894  Mo  0.125000  0.625000  0.275000
W921  W  0.150000  0.600000  0.250000
W922  W  0.175000  0.625000  0.275000
Mo895  Mo  0.200000  0.600000  0.250000
Nb862  Nb  0.225000  0.625000  0.275000
W923  W  0.250000  0.600000  0.250000
Ta882  Ta  0.275000  0.625000  0.275000
Ta883  Ta  0.300000  0.600000  0.250000
Mo896  Mo  0.325000  0.625000  0.275000
Ta884  Ta  0.350000  0.600000  0.250000
Nb863  Nb  0.375000  0.625000  0.275000
W924  W  0.400000  0.600000  0.250000
Nb864  Nb  0.425000  0.625000  0.275000
Mo897  Mo  0.450000  0.600000  0.250000
W925  W  0.475000  0.625000  0.275000
W926  W  -0.000000  0.650000  0.250000
Mo898  Mo  0.050000  0.650000  0.250000
Ta885  Ta  0.100000  0.650000  0.250000
Ta886  Ta  0.150000  0.650000  0.250000
W927  W  0.200000  0.650000  0.250000
Nb865  Nb  0.250000  0.650000  0.250000
Ta887  Ta  0.300000  0.650000  0.250000
Nb866  Nb  0.350000  0.650000  0.250000
Ta888  Ta  0.400000  0.650000  0.250000
Nb867  Nb  0.450000  0.650000  0.250000
Mo899  Mo  -0.000000  0.350000  0.300000
W928  W  0.025000  0.375000  0.325000
Ta889  Ta  0.050000  0.350000  0.300000
W929  W  0.075000  0.375000  0.325000
Ta890  Ta  0.100000  0.350000  0.300000
Nb868  Nb  0.125000  0.375000  0.325000
Mo900  Mo  0.150000  0.350000  0.300000
W930  W  0.175000  0.375000  0.325000
Ta891  Ta  0.200000  0.350000  0.300000
Nb869  Nb  0.225000  0.375000  0.325000
Ta892  Ta  0.250000  0.350000  0.300000
Mo901  Mo  0.275000  0.375000  0.325000
Ta893  Ta  0.300000  0.350000  0.300000
Nb870  Nb  0.325000  0.375000  0.325000
Ta894  Ta  0.350000  0.350000  0.300000
Nb871  Nb  0.375000  0.375000  0.325000
Mo902  Mo  0.400000  0.350000  0.300000
W931  W  0.425000  0.375000  0.325000
Mo903  Mo  0.450000  0.350000  0.300000
Nb872  Nb  0.475000  0.375000  0.325000
Ta895  Ta  -0.000000  0.400000  0.300000
Nb873  Nb  0.025000  0.425000  0.325000
Nb874  Nb  0.050000  0.400000  0.300000
Ta896  Ta  0.075000  0.425000  0.325000
Mo904  Mo  0.100000  0.400000  0.300000
Nb875  Nb  0.125000  0.425000  0.325000
Ta897  Ta  0.150000  0.400000  0.300000
W932  W  0.175000  0.425000  0.325000
Nb876  Nb  0.200000  0.400000  0.300000
Mo905  Mo  0.225000  0.425000  0.325000
W933  W  0.250000  0.400000  0.300000
Mo906  Mo  0.275000  0.425000  0.325000
Ta898  Ta  0.300000  0.400000  0.300000
Nb877  Nb  0.325000  0.425000  0.325000
W934  W  0.350000  0.400000  0.300000
Mo907  Mo  0.375000  0.425000  0.325000
Ta899  Ta  0.400000  0.400000  0.300000
W935  W  0.425000  0.425000  0.325000
Mo908  Mo  0.450000  0.400000  0.300000
Nb878  Nb  0.475000  0.425000  0.325000
Nb879  Nb  -0.000000  0.450000  0.300000
Mo909  Mo  0.025000  0.475000  0.325000
Ta900  Ta  0.050000  0.450000  0.300000
Ta901  Ta  0.075000  0.475000  0.325000
W936  W  0.100000  0.450000  0.300000
Ta902  Ta  0.125000  0.475000  0.325000
Nb880  Nb  0.150000  0.450000  0.300000
Nb881  Nb  0.175000  0.475000  0.325000
Nb882  Nb  0.200000  0.450000  0.300000
W937  W  0.225000  0.475000  0.325000
W938  W  0.250000  0.450000  0.300000
Mo910  Mo  0.275000  0.475000  0.325000
Mo911  Mo  0.300000  0.450000  0.300000
Nb883  Nb  0.325000  0.475000  0.325000
Ta903  Ta  0.350000  0.450000  0.300000
Mo912  Mo  0.375000  0.475000  0.325000
Ta904  Ta  0.400000  0.450000  0.300000
Mo913  Mo  0.425000  0.475000  0.325000
W939  W  0.450000  0.450000  0.300000
W940  W  0.475000  0.475000  0.325000
Ta905  Ta  -0.000000  0.500000  0.300000
W941  W  0.025000  0.525000  0.325000
Nb884  Nb  0.050000  0.500000  0.300000
Ta906  Ta  0.075000  0.525000  0.325000
Ta907  Ta  0.100000  0.500000  0.300000
Ta908  Ta  0.125000  0.525000  0.325000
Mo914  Mo  0.150000  0.500000  0.300000
W942  W  0.175000  0.525000  0.325000
W943  W  0.200000  0.500000  0.300000
Ta909  Ta  0.225000  0.525000  0.325000
W944  W  0.250000  0.500000  0.300000
W945  W  0.275000  0.525000  0.325000
Nb885  Nb  0.300000  0.500000  0.300000
Nb886  Nb  0.325000  0.525000  0.325000
Mo915  Mo  0.350000  0.500000  0.300000
Mo916  Mo  0.375000  0.525000  0.325000
Ta910  Ta  0.400000  0.500000  0.300000
W946  W  0.425000  0.525000  0.325000
Nb887  Nb  0.450000  0.500000  0.300000
Ta911  Ta  0.475000  0.525000  0.325000
Mo917  Mo  -0.000000  0.550000  0.300000
W947  W  0.025000  0.575000  0.325000
W948  W  0.050000  0.550000  0.300000
W949  W  0.075000  0.575000  0.325000
W950  W  0.100000  0.550000  0.300000
Mo918  Mo  0.125000  0.575000  0.325000
W951  W  0.150000  0.550000  0.300000
Ta912  Ta  0.175000  0.575000  0.325000
Ta913  Ta  0.200000  0.550000  0.300000
Ta914  Ta  0.225000  0.575000  0.325000
Nb888  Nb  0.250000  0.550000  0.300000
Ta915  Ta  0.275000  0.575000  0.325000
Nb889  Nb  0.300000  0.550000  0.300000
Mo919  Mo  0.325000  0.575000  0.325000
Nb890  Nb  0.350000  0.550000  0.300000
Mo920  Mo  0.375000  0.575000  0.325000
W952  W  0.400000  0.550000  0.300000
Mo921  Mo  0.425000  0.575000  0.325000
Mo922  Mo  0.450000  0.550000  0.300000
W953  W  0.475000  0.575000  0.325000
Ta916  Ta  -0.000000  0.600000  0.300000
Nb891  Nb  0.025000  0.625000  0.325000
Nb892  Nb  0.050000  0.600000  0.300000
Mo923  Mo  0.075000  0.625000  0.325000
Ta917  Ta  0.100000  0.600000  0.300000
W954  W  0.125000  0.625000  0.325000
Nb893  Nb  0.150000  0.600000  0.300000
Ta918  Ta  0.175000  0.625000  0.325000
Ta919  Ta  0.200000  0.600000  0.300000
W955  W  0.225000  0.625000  0.325000
W956  W  0.250000  0.600000  0.300000
W957  W  0.275000  0.625000  0.325000
Ta920  Ta  0.300000  0.600000  0.300000
Mo924  Mo  0.325000  0.625000  0.325000
Ta921  Ta  0.350000  0.600000  0.300000
Nb894  Nb  0.375000  0.625000  0.325000
Mo925  Mo  0.400000  0.600000  0.300000
Nb895  Nb  0.425000  0.625000  0.325000
Ta922  Ta  0.450000  0.600000  0.300000
W958  W  0.475000  0.625000  0.325000
Mo926  Mo  -0.000000  0.650000  0.300000
W959  W  0.050000  0.650000  0.300000
Nb896  Nb  0.100000  0.650000  0.300000
Mo927  Mo  0.150000  0.650000  0.300000
Mo928  Mo  0.200000  0.650000  0.300000
Ta923  Ta  0.250000  0.650000  0.300000
Nb897  Nb  0.300000  0.650000  0.300000
Mo929  Mo  0.350000  0.650000  0.300000
Nb898  Nb  0.400000  0.650000  0.300000
W960  W  0.450000  0.650000  0.300000
W961  W  -0.000000  0.350000  0.350000
Mo930  Mo  0.025000  0.375000  0.375000
Nb899  Nb  0.050000  0.350000  0.350000
W962  W  0.075000  0.375000  0.375000
Ta924  Ta  0.100000  0.350000  0.350000
Ta925  Ta  0.125000  0.375000  0.375000
Nb900  Nb  0.150000  0.350000  0.350000
Ta926  Ta  0.175000  0.375000  0.375000
Nb901  Nb  0.200000  0.350000  0.350000
Nb902  Nb  0.225000  0.375000  0.375000
Mo931  Mo  0.250000  0.350000  0.350000
Mo932  Mo  0.275000  0.375000  0.375000
Ta927  Ta  0.300000  0.350000  0.350000
Ta928  Ta  0.325000  0.375000  0.375000
Nb903  Nb  0.350000  0.350000  0.350000
W963  W  0.375000  0.375000  0.375000
W964  W  0.400000  0.350000  0.350000
Mo933  Mo  0.425000  0.375000  0.375000
Nb904  Nb  0.450000  0.350000  0.350000
Mo934  Mo  0.475000  0.375000  0.375000
Nb905  Nb  -0.000000  0.400000  0.350000
Mo935  Mo  0.025000  0.425000  0.375000
Ta929  Ta  0.050000  0.400000  0.350000
Nb906  Nb  0.075000  0.425000  0.375000
Nb907  Nb  0.100000  0.400000  0.350000
Nb908  Nb  0.125000  0.425000  0.375000
W965  W  0.150000  0.400000  0.350000
Mo936  Mo  0.175000  0.425000  0.375000
Mo937  Mo  0.200000  0.400000  0.350000
Nb909  Nb  0.225000  0.425000  0.375000
Ta930  Ta  0.250000  0.400000  0.350000
Ta931  Ta  0.275000  0.425000  0.375000
Ta932  Ta  0.300000  0.400000  0.350000
Nb910  Nb  0.325000  0.425000  0.375000
Mo938  Mo  0.350000  0.400000  0.350000
Nb911  Nb  0.375000  0.425000  0.375000
Nb912  Nb  0.400000  0.400000  0.350000
Mo939  Mo  0.425000  0.425000  0.375000
Nb913  Nb  0.450000  0.400000  0.350000
Nb914  Nb  0.475000  0.425000  0.375000
W966  W  -0.000000  0.450000  0.350000
Ta933  Ta  0.025000  0.475000  0.375000
W967  W  0.050000  0.450000  0.350000
Nb915  Nb  0.075000  0.475000  0.375000
Nb916  Nb  0.100000  0.450000  0.350000
W968  W  0.125000  0.475000  0.375000
Mo940  Mo  0.150000  0.450000  0.350000
Ta934  Ta  0.175000  0.475000  0.375000
Mo941  Mo  0.200000  0.450000  0.350000
Mo942  Mo  0.225000  0.475000  0.375000
Mo943  Mo  0.250000  0.450000  0.350000
Mo944  Mo  0.275000  0.475000  0.375000
W969  W  0.300000  0.450000  0.350000
Mo945  Mo  0.325000  0.475000  0.375000
Nb917  Nb  0.350000  0.450000  0.350000
Ta935  Ta  0.375000  0.475000  0.375000
Ta936  Ta  0.400000  0.450000  0.350000
Ta937  Ta  0.425000  0.475000  0.375000
Nb918  Nb  0.450000  0.450000  0.350000
Mo946  Mo  0.475000  0.475000  0.375000
W970  W  -0.000000  0.500000  0.350000
Nb919  Nb  0.025000  0.525000  0.375000
Mo947  Mo  0.050000  0.500000  0.350000
W971  W  0.075000  0.525000  0.375000
W972  W  0.100000  0.500000  0.350000
W973  W  0.125000  0.525000  0.375000
Mo948  Mo  0.150000  0.500000  0.350000
Mo949  Mo  0.175000  0.525000  0.375000
Ta938  Ta  0.200000  0.500000  0.350000
Ta939  Ta  0.225000  0.525000  0.375000
Nb920  Nb  0.250000  0.500000  0.350000
W974  W  0.275000  0.525000  0.375000
W975  W  0.300000  0.500000  0.350000
Mo950  Mo  0.325000  0.525000  0.375000
W976  W  0.350000  0.500000  0.350000
Ta940  Ta  0.375000  0.525000  0.375000
Ta941  Ta  0.400000  0.500000  0.350000
W977  W  0.425000  0.525000  0.375000
Mo951  Mo  0.450000  0.500000  0.350000
Mo952  Mo  0.475000  0.525000  0.375000
Nb921  Nb  -0.000000  0.550000  0.350000
Nb922  Nb  0.025000  0.575000  0.375000
W978  W  0.050000  0.550000  0.350000
Mo953  Mo  0.075000  0.575000  0.375000
Nb923  Nb  0.100000  0.550000  0.350000
Mo954  Mo  0.125000  0.575000  0.375000
W979  W  0.150000  0.550000  0.350000
Nb924  Nb  0.175000  0.575000  0.375000
Mo955  Mo  0.200000  0.550000  0.350000
Mo956  Mo  0.225000  0.575000  0.375000
Mo957  Mo  0.250000  0.550000  0.350000
Mo958  Mo  0.275000  0.575000  0.375000
W980  W  0.300000  0.550000  0.350000
Nb925  Nb  0.325000  0.575000  0.375000
W981  W  0.350000  0.550000  0.350000
Ta942  Ta  0.375000  0.575000  0.375000
Nb926  Nb  0.400000  0.550000  0.350000
Nb927  Nb  0.425000  0.575000  0.375000
Nb928  Nb  0.450000  0.550000  0.350000
W982  W  0.475000  0.575000  0.375000
W983  W  -0.000000  0.600000  0.350000
Nb929  Nb  0.025000  0.625000  0.375000
Mo959  Mo  0.050000  0.600000  0.350000
Mo960  Mo  0.075000  0.625000  0.375000
Ta943  Ta  0.100000  0.600000  0.350000
Ta944  Ta  0.125000  0.625000  0.375000
W984  W  0.150000  0.600000  0.350000
Ta945  Ta  0.175000  0.625000  0.375000
Ta946  Ta  0.200000  0.600000  0.350000
Nb930  Nb  0.225000  0.625000  0.375000
Mo961  Mo  0.250000  0.600000  0.350000
Nb931  Nb  0.275000  0.625000  0.375000
W985  W  0.300000  0.600000  0.350000
Ta947  Ta  0.325000  0.625000  0.375000
W986  W  0.350000  0.600000  0.350000
Nb932  Nb  0.375000  0.625000  0.375000
Ta948  Ta  0.400000  0.600000  0.350000
Ta949  Ta  0.425000  0.625000  0.375000
Ta950  Ta  0.450000  0.600000  0.350000
W987  W  0.475000  0.625000  0.375000
Mo962  Mo  -0.000000  0.650000  0.350000
Mo963  Mo  0.050000  0.650000  0.350000
Nb933  Nb  0.100000  0.650000  0.350000
Ta951  Ta  0.150000  0.650000  0.350000
Nb934  Nb  0.200000  0.650000  0.350000
Nb935  Nb  0.250000  0.650000  0.350000
Mo964  Mo  0.300000  0.650000  0.350000
Mo965  Mo  0.350000  0.650000  0.350000
Nb936  Nb  0.400000  0.650000  0.350000
Mo966  Mo  0.450000  0.650000  0.350000
Mo967  Mo  -0.000000  0.350000  0.400000
W988  W  0.025000  0.375000  0.425000
W989  W  0.050000  0.350000  0.400000
W990  W  0.075000  0.375000  0.425000
Nb937  Nb  0.100000  0.350000  0.400000
Ta952  Ta  0.125000  0.375000  0.425000
Mo968  Mo  0.150000  0.350000  0.400000
Ta953  Ta  0.175000  0.375000  0.425000
Ta954  Ta  0.200000  0.350000  0.400000
Nb938  Nb  0.225000  0.375000  0.425000
W991  W  0.250000  0.350000  0.400000
W992  W  0.275000  0.375000  0.425000
Ta955  Ta  0.300000  0.350000  0.400000
Ta956  Ta  0.325000  0.375000  0.425000
Mo969  Mo  0.350000  0.350000  0.400000
W993  W  0.375000  0.375000  0.425000
Nb939  Nb  0.400000  0.350000  0.400000
Ta957  Ta  0.425000  0.375000  0.425000
Ta958  Ta  0.450000  0.350000  0.400000
Ta959  Ta  0.475000  0.375000  0.425000
Nb940  Nb  -0.000000  0.400000  0.400000
Ta960  Ta  0.025000  0.425000  0.425000
Nb941  Nb  0.050000  0.400000  0.400000
Nb942  Nb  0.075000  0.425000  0.425000
Ta961  Ta  0.100000  0.400000  0.400000
W994  W  0.125000  0.425000  0.425000
W995  W  0.150000  0.400000  0.400000
Ta962  Ta  0.175000  0.425000  0.425000
Ta963  Ta  0.200000  0.400000  0.400000
Mo970  Mo  0.225000  0.425000  0.425000
W996  W  0.250000  0.400000  0.400000
Ta964  Ta  0.275000  0.425000  0.425000
Mo971  Mo  0.300000  0.400000  0.400000
Mo972  Mo  0.325000  0.425000  0.425000
Ta965  Ta  0.350000  0.400000  0.400000
W997  W  0.375000  0.425000  0.425000
W998  W  0.400000  0.400000  0.400000
Ta966  Ta  0.425000  0.425000  0.425000
Nb943  Nb  0.450000  0.400000  0.400000
Nb944  Nb  0.475000  0.425000  0.425000
W999  W  -0.000000  0.450000  0.400000
W1000  W  0.025000  0.475000  0.425000
Nb945  Nb  0.050000  0.450000  0.400000
W1001  W  0.075000  0.475000  0.425000
W1002  W  0.100000  0.450000  0.400000
Nb946  Nb  0.125000  0.475000  0.425000
W1003  W  0.150000  0.450000  0.400000
Nb947  Nb  0.175000  0.475000  0.425000
Mo973  Mo  0.200000  0.450000  0.400000
Nb948  Nb  0.225000  0.475000  0.425000
Nb949  Nb  0.250000  0.450000  0.400000
Ta967  Ta  0.275000  0.475000  0.425000
Mo974  Mo  0.300000  0.450000  0.400000
Nb950  Nb  0.325000  0.475000  0.425000
Mo975  Mo  0.350000  0.450000  0.400000
Mo976  Mo  0.375000  0.475000  0.425000
Mo977  Mo  0.400000  0.450000  0.400000
Ta968  Ta  0.425000  0.475000  0.425000
Mo978  Mo  0.450000  0.450000  0.400000
W1004  W  0.475000  0.475000  0.425000
Mo979  Mo  -0.000000  0.500000  0.400000
W1005  W  0.025000  0.525000  0.425000
W1006  W  0.050000  0.500000  0.400000
W1007  W  0.075000  0.525000  0.425000
W1008  W  0.100000  0.500000  0.400000
Nb951  Nb  0.125000  0.525000  0.425000
Ta969  Ta  0.150000  0.500000  0.400000
W1009  W  0.175000  0.525000  0.425000
Ta970  Ta  0.200000  0.500000  0.400000
Ta971  Ta  0.225000  0.525000  0.425000
Mo980  Mo  0.250000  0.500000  0.400000
Mo981  Mo  0.275000  0.525000  0.425000
Nb952  Nb  0.300000  0.500000  0.400000
Nb953  Nb  0.325000  0.525000  0.425000
Nb954  Nb  0.350000  0.500000  0.400000
Mo982  Mo  0.375000  0.525000  0.425000
W1010  W  0.400000  0.500000  0.400000
Mo983  Mo  0.425000  0.525000  0.425000
Ta972  Ta  0.450000  0.500000  0.400000
W1011  W  0.475000  0.525000  0.425000
Nb955  Nb  -0.000000  0.550000  0.400000
Ta973  Ta  0.025000  0.575000  0.425000
Mo984  Mo  0.050000  0.550000  0.400000
Nb956  Nb  0.075000  0.575000  0.425000
Nb957  Nb  0.100000  0.550000  0.400000
Nb958  Nb  0.125000  0.575000  0.425000
Mo985  Mo  0.150000  0.550000  0.400000
Ta974  Ta  0.175000  0.575000  0.425000
Mo986  Mo  0.200000  0.550000  0.400000
W1012  W  0.225000  0.575000  0.425000
Mo987  Mo  0.250000  0.550000  0.400000
Ta975  Ta  0.275000  0.575000  0.425000
Ta976  Ta  0.300000  0.550000  0.400000
W1013  W  0.325000  0.575000  0.425000
Nb959  Nb  0.350000  0.550000  0.400000
Mo988  Mo  0.375000  0.575000  0.425000
Ta977  Ta  0.400000  0.550000  0.400000
W1014  W  0.425000  0.575000  0.425000
Mo989  Mo  0.450000  0.550000  0.400000
Mo990  Mo  0.475000  0.575000  0.425000
Nb960  Nb  -0.000000  0.600000  0.400000
Mo991  Mo  0.025000  0.625000  0.425000
Nb961  Nb  0.050000  0.600000  0.400000
Ta978  Ta  0.075000  0.625000  0.425000
Nb962  Nb  0.100000  0.600000  0.400000
Nb963  Nb  0.125000  0.625000  0.425000
Ta979  Ta  0.150000  0.600000  0.400000
Mo992  Mo  0.175000  0.625000  0.425000
Mo993  Mo  0.200000  0.600000  0.400000
W1015  W  0.225000  0.625000  0.425000
Ta980  Ta  0.250000  0.600000  0.400000
W1016  W  0.275000  0.625000  0.425000
W1017  W  0.300000  0.600000  0.400000
Ta981  Ta  0.325000  0.625000  0.425000
Mo994  Mo  0.350000  0.600000  0.400000
W1018  W  0.375000  0.625000  0.425000
Nb964  Nb  0.400000  0.600000  0.400000
W1019  W  0.425000  0.625000  0.425000
Ta982  Ta  0.450000  0.600000  0.400000
Ta983  Ta  0.475000  0.625000  0.425000
Nb965  Nb  -0.000000  0.650000  0.400000
Mo995  Mo  0.050000  0.650000  0.400000
Nb966  Nb  0.100000  0.650000  0.400000
Ta984  Ta  0.150000  0.650000  0.400000
Mo996  Mo  0.200000  0.650000  0.400000
Nb967  Nb  0.250000  0.650000  0.400000
W1020  W  0.300000  0.650000  0.400000
Ta985  Ta  0.350000  0.650000  0.400000
Ta986  Ta  0.400000  0.650000  0.400000
Mo997  Mo  0.450000  0.650000  0.400000
W1021  W  -0.000000  0.350000  0.450000
W1022  W  0.025000  0.375000  0.475000
W1023  W  0.050000  0.350000  0.450000
Ta987  Ta  0.075000  0.375000  0.475000
Nb968  Nb  0.100000  0.350000  0.450000
Ta988  Ta  0.125000  0.375000  0.475000
Mo998  Mo  0.150000  0.350000  0.450000
Nb969  Nb  0.175000  0.375000  0.475000
W1024  W  0.200000  0.350000  0.450000
Nb970  Nb  0.225000  0.375000  0.475000
Nb971  Nb  0.250000  0.350000  0.450000
Mo999  Mo  0.275000  0.375000  0.475000
Mo1000  Mo  0.300000  0.350000  0.450000
Nb972  Nb  0.325000  0.375000  0.475000
Mo1001  Mo  0.350000  0.350000  0.450000
Mo1002  Mo  0.375000  0.375000  0.475000
Nb973  Nb  0.400000  0.350000  0.450000
Nb974  Nb  0.425000  0.375000  0.475000
Mo1003  Mo  0.450000  0.350000  0.450000
Mo1004  Mo  0.475000  0.375000  0.475000
Ta989  Ta  -0.000000  0.400000  0.450000
W1025  W  0.025000  0.425000  0.475000
Ta990  Ta  0.050000  0.400000  0.450000
Nb975  Nb  0.075000  0.425000  0.475000
Nb976  Nb  0.100000  0.400000  0.450000
W1026  W  0.125000  0.425000  0.475000
Mo1005  Mo  0.150000  0.400000  0.450000
Nb977  Nb  0.175000  0.425000  0.475000
Ta991  Ta  0.200000  0.400000  0.450000
Mo1006  Mo  0.225000  0.425000  0.475000
Ta992  Ta  0.250000  0.400000  0.450000
Ta993  Ta  0.275000  0.425000  0.475000
Mo1007  Mo  0.300000  0.400000  0.450000
Nb978  Nb  0.325000  0.425000  0.475000
Ta994  Ta  0.350000  0.400000  0.450000
Nb979  Nb  0.375000  0.425000  0.475000
W1027  W  0.400000  0.400000  0.450000
Ta995  Ta  0.425000  0.425000  0.475000
W1028  W  0.450000  0.400000  0.450000
Nb980  Nb  0.475000  0.425000  0.475000
W1029  W  -0.000000  0.450000  0.450000
Mo1008  Mo  0.025000  0.475000  0.475000
Nb981  Nb  0.050000  0.450000  0.450000
Nb982  Nb  0.075000  0.475000  0.475000
W1030  W  0.100000  0.450000  0.450000
Mo1009  Mo  0.125000  0.475000  0.475000
Nb983  Nb  0.150000  0.450000  0.450000
Ta996  Ta  0.175000  0.475000  0.475000
Ta997  Ta  0.200000  0.450000  0.450000
W1031  W  0.225000  0.475000  0.475000
Mo1010  Mo  0.250000  0.450000  0.450000
Mo1011  Mo  0.275000  0.475000  0.475000
Mo1012  Mo  0.300000  0.450000  0.450000
Ta998  Ta  0.325000  0.475000  0.475000
Nb984  Nb  0.350000  0.450000  0.450000
Mo1013  Mo  0.375000  0.475000  0.475000
W1032  W  0.400000  0.450000  0.450000
Nb985  Nb  0.425000  0.475000  0.475000
Nb986  Nb  0.450000  0.450000  0.450000
Nb987  Nb  0.475000  0.475000  0.475000
W1033  W  -0.000000  0.500000  0.450000
W1034  W  0.025000  0.525000  0.475000
Nb988  Nb  0.050000  0.500000  0.450000
Mo1014  Mo  0.075000  0.525000  0.475000
Mo1015  Mo  0.100000  0.500000  0.450000
Ta999  Ta  0.125000  0.525000  0.475000
Nb989  Nb  0.150000  0.500000  0.450000
Nb990  Nb  0.175000  0.525000  0.475000
Mo1016  Mo  0.200000  0.500000  0.450000
Mo1017  Mo  0.225000  0.525000  0.475000
Mo1018  Mo  0.250000  0.500000  0.450000
W1035  W  0.275000  0.525000  0.475000
Mo1019  Mo  0.300000  0.500000  0.450000
Ta1000  Ta  0.325000  0.525000  0.475000
Nb991  Nb  0.350000  0.500000  0.450000
Nb992  Nb  0.375000  0.525000  0.475000
Ta1001  Ta  0.400000  0.500000  0.450000
Mo1020  Mo  0.425000  0.525000  0.475000
Nb993  Nb  0.450000  0.500000  0.450000
Ta1002  Ta  0.475000  0.525000  0.475000
Nb994  Nb  -0.000000  0.550000  0.450000
Nb995  Nb  0.025000  0.575000  0.475000
Ta1003  Ta  0.050000  0.550000  0.450000
Ta1004  Ta  0.075000  0.575000  0.475000
Nb996  Nb  0.100000  0.550000  0.450000
Ta1005  Ta  0.125000  0.575000  0.475000
Ta1006  Ta  0.150000  0.550000  0.450000
W1036  W  0.175000  0.575000  0.475000
Ta1007  Ta  0.200000  0.550000  0.450000
Ta1008  Ta  0.225000  0.575000  0.475000
Mo1021  Mo  0.250000  0.550000  0.450000
Ta1009  Ta  0.275000  0.575000  0.475000
Mo1022  Mo  0.300000  0.550000  0.450000
Ta1010  Ta  0.325000  0.575000  0.475000
Nb997  Nb  0.350000  0.550000  0.450000
W1037  W  0.375000  0.575000  0.475000
Nb998  Nb  0.400000  0.550000  0.450000
Mo1023  Mo  0.425000  0.575000  0.475000
W1038  W  0.450000  0.550000  0.450000
Mo1024  Mo  0.475000  0.575000  0.475000
Mo1025  Mo  -0.000000  0.600000  0.450000
W1039  W  0.025000  0.625000  0.475000
W1040  W  0.050000  0.600000  0.450000
Nb999  Nb  0.075000  0.625000  0.475000
Mo1026  Mo  0.100000  0.600000  0.450000
W1041  W  0.125000  0.625000  0.475000
W1042  W  0.150000  0.600000  0.450000
W1043  W  0.175000  0.625000  0.475000
W1044  W  0.200000  0.600000  0.450000
Nb1000  Nb  0.225000  0.625000  0.475000
Nb1001  Nb  0.250000  0.600000  0.450000
Ta1011  Ta  0.275000  0.625000  0.475000
Ta1012  Ta  0.300000  0.600000  0.450000
Nb1002  Nb  0.325000  0.625000  0.475000
Ta1013  Ta  0.350000  0.600000  0.450000
Ta1014  Ta  0.375000  0.625000  0.475000
W1045  W  0.400000  0.600000  0.450000
W1046  W  0.425000  0.625000  0.475000
Ta1015  Ta  0.450000  0.600000  0.450000
Mo1027  Mo  0.475000  0.625000  0.475000
Ta1016  Ta  -0.000000  0.650000  0.450000
Ta1017  Ta  0.050000  0.650000  0.450000
Ta1018  Ta  0.100000  0.650000  0.450000
Mo1028  Mo  0.150000  0.650000  0.450000
Nb1003  Nb  0.200000  0.650000  0.450000
Mo1029  Mo  0.250000  0.650000  0.450000
Mo1030  Mo  0.300000  0.650000  0.450000
Mo1031  Mo  0.350000  0.650000  0.450000
W1047  W  0.400000  0.650000  0.450000
Nb1004  Nb  0.450000  0.650000  0.450000
Nb1005  Nb  -0.000000  0.350000  0.500000
Nb1006  Nb  0.025000  0.375000  0.525000
Nb1007  Nb  0.050000  0.350000  0.500000
Nb1008  Nb  0.075000  0.375000  0.525000
Nb1009  Nb  0.100000  0.350000  0.500000
Mo1032  Mo  0.125000  0.375000  0.525000
Ta1019  Ta  0.150000  0.350000  0.500000
Nb1010  Nb  0.175000  0.375000  0.525000
Nb1011  Nb  0.200000  0.350000  0.500000
Nb1012  Nb  0.225000  0.375000  0.525000
Mo1033  Mo  0.250000  0.350000  0.500000
Mo1034  Mo  0.275000  0.375000  0.525000
Mo1035  Mo  0.300000  0.350000  0.500000
Nb1013  Nb  0.325000  0.375000  0.525000
Ta1020  Ta  0.350000  0.350000  0.500000
Ta1021  Ta  0.375000  0.375000  0.525000
Mo1036  Mo  0.400000  0.350000  0.500000
Ta1022  Ta  0.425000  0.375000  0.525000
Nb1014  Nb  0.450000  0.350000  0.500000
Nb1015  Nb  0.475000  0.375000  0.525000
W1048  W  -0.000000  0.400000  0.500000
Mo1037  Mo  0.025000  0.425000  0.525000
Nb1016  Nb  0.050000  0.400000  0.500000
Ta1023  Ta  0.075000  0.425000  0.525000
Nb1017  Nb  0.100000  0.400000  0.500000
Mo1038  Mo  0.125000  0.425000  0.525000
Mo1039  Mo  0.150000  0.400000  0.500000
Nb1018  Nb  0.175000  0.425000  0.525000
Nb1019  Nb  0.200000  0.400000  0.500000
Ta1024  Ta  0.225000  0.425000  0.525000
Ta1025  Ta  0.250000  0.400000  0.500000
Mo1040  Mo  0.275000  0.425000  0.525000
Nb1020  Nb  0.300000  0.400000  0.500000
W1049  W  0.325000  0.425000  0.525000
Nb1021  Nb  0.350000  0.400000  0.500000
Nb1022  Nb  0.375000  0.425000  0.525000
W1050  W  0.400000  0.400000  0.500000
Ta1026  Ta  0.425000  0.425000  0.525000
W1051  W  0.450000  0.400000  0.500000
Mo1041  Mo  0.475000  0.425000  0.525000
Mo1042  Mo  -0.000000  0.450000  0.500000
Ta1027  Ta  0.025000  0.475000  0.525000
Mo1043  Mo  0.050000  0.450000  0.500000
Nb1023  Nb  0.075000  0.475000  0.525000
Nb1024  Nb  0.100000  0.450000  0.500000
W1052  W  0.125000  0.475000  0.525000
Nb1025  Nb  0.150000  0.450000  0.500000
Mo1044  Mo  0.175000  0.475000  0.525000
Nb1026  Nb  0.200000  0.450000  0.500000
Ta1028  Ta  0.225000  0.475000  0.525000
Mo1045  Mo  0.250000  0.450000  0.500000
Nb1027  Nb  0.275000  0.475000  0.525000
Ta1029  Ta  0.300000  0.450000  0.500000
Mo1046  Mo  0.325000  0.475000  0.525000
W1053  W  0.350000  0.450000  0.500000
W1054  W  0.375000  0.475000  0.525000
Mo1047  Mo  0.400000  0.450000  0.500000
Nb1028  Nb  0.425000  0.475000  0.525000
Nb1029  Nb  0.450000  0.450000  0.500000
Mo1048  Mo  0.475000  0.475000  0.525000
Mo1049  Mo  -0.000000  0.500000  0.500000
Ta1030  Ta  0.025000  0.525000  0.525000
Nb1030  Nb  0.050000  0.500000  0.500000
W1055  W  0.075000  0.525000  0.525000
W1056  W  0.100000  0.500000  0.500000
Mo1050  Mo  0.125000  0.525000  0.525000
Ta1031  Ta  0.150000  0.500000  0.500000
Ta1032  Ta  0.175000  0.525000  0.525000
Ta1033  Ta  0.200000  0.500000  0.500000
Mo1051  Mo  0.225000  0.525000  0.525000
Mo1052  Mo  0.250000  0.500000  0.500000
Mo1053  Mo  0.275000  0.525000  0.525000
Nb1031  Nb  0.300000  0.500000  0.500000
W1057  W  0.325000  0.525000  0.525000
Ta1034  Ta  0.350000  0.500000  0.500000
Nb1032  Nb  0.375000  0.525000  0.525000
Nb1033  Nb  0.400000  0.500000  0.500000
Mo1054  Mo  0.425000  0.525000  0.525000
W1058  W  0.450000  0.500000  0.500000
Ta1035  Ta  0.475000  0.525000  0.525000
Mo1055  Mo  -0.000000  0.550000  0.500000
Mo1056  Mo  0.025000  0.575000  0.525000
W1059  W  0.050000  0.550000  0.500000
Nb1034  Nb  0.075000  0.575000  0.525000
Ta1036  Ta  0.100000  0.550000  0.500000
Mo1057  Mo  0.125000  0.575000  0.525000
Nb1035  Nb  0.150000  0.550000  0.500000
Nb1036  Nb  0.175000  0.575000  0.525000
Ta1037  Ta  0.200000  0.550000  0.500000
Nb1037  Nb  0.225000  0.575000  0.525000
Nb1038  Nb  0.250000  0.550000  0.500000
Ta1038  Ta  0.275000  0.575000  0.525000
Ta1039  Ta  0.300000  0.550000  0.500000
Ta1040  Ta  0.325000  0.575000  0.525000
Ta1041  Ta  0.350000  0.550000  0.500000
W1060  W  0.375000  0.575000  0.525000
W1061  W  0.400000  0.550000  0.500000
Nb1039  Nb  0.425000  0.575000  0.525000
W1062  W  0.450000  0.550000  0.500000
Mo1058  Mo  0.475000  0.575000  0.525000
W1063  W  -0.000000  0.600000  0.500000
Nb1040  Nb  0.025000  0.625000  0.525000
Mo1059  Mo  0.050000  0.600000  0.500000
Mo1060  Mo  0.075000  0.625000  0.525000
W1064  W  0.100000  0.600000  0.500000
Mo1061  Mo  0.125000  0.625000  0.525000
Ta1042  Ta  0.150000  0.600000  0.500000
W1065  W  0.175000  0.625000  0.525000
Mo1062  Mo  0.200000  0.600000  0.500000
Mo1063  Mo  0.225000  0.625000  0.525000
Ta1043  Ta  0.250000  0.600000  0.500000
W1066  W  0.275000  0.625000  0.525000
Mo1064  Mo  0.300000  0.600000  0.500000
Mo1065  Mo  0.325000  0.625000  0.525000
Nb1041  Nb  0.350000  0.600000  0.500000
Nb1042  Nb  0.375000  0.625000  0.525000
Ta1044  Ta  0.400000  0.600000  0.500000
W1067  W  0.425000  0.625000  0.525000
Ta1045  Ta  0.450000  0.600000  0.500000
W1068  W  0.475000  0.625000  0.525000
Ta1046  Ta  -0.000000  0.650000  0.500000
W1069  W  0.050000  0.650000  0.500000
W1070  W  0.100000  0.650000  0.500000
Nb1043  Nb  0.150000  0.650000  0.500000
Nb1044  Nb  0.200000  0.650000  0.500000
Nb1045  Nb  0.250000  0.650000  0.500000
Mo1066  Mo  0.300000  0.650000  0.500000
Mo1067  Mo  0.350000  0.650000  0.500000
Ta1047  Ta  0.400000  0.650000  0.500000
Ta1048  Ta  0.450000  0.650000  0.500000
W1071  W  -0.000000  0.350000  0.550000
Ta1049  Ta  0.025000  0.375000  0.575000
Nb1046  Nb  0.050000  0.350000  0.550000
W1072  W  0.075000  0.375000  0.575000
Mo1068  Mo  0.100000  0.350000  0.550000
Mo1069  Mo  0.125000  0.375000  0.575000
W1073  W  0.150000  0.350000  0.550000
Ta1050  Ta  0.175000  0.375000  0.575000
Nb1047  Nb  0.200000  0.350000  0.550000
Nb1048  Nb  0.225000  0.375000  0.575000
Nb1049  Nb  0.250000  0.350000  0.550000
W1074  W  0.275000  0.375000  0.575000
W1075  W  0.300000  0.350000  0.550000
Mo1070  Mo  0.325000  0.375000  0.575000
Mo1071  Mo  0.350000  0.350000  0.550000
Ta1051  Ta  0.375000  0.375000  0.575000
Mo1072  Mo  0.400000  0.350000  0.550000
Ta1052  Ta  0.425000  0.375000  0.575000
Nb1050  Nb  0.450000  0.350000  0.550000
W1076  W  0.475000  0.375000  0.575000
Ta1053  Ta  -0.000000  0.400000  0.550000
W1077  W  0.025000  0.425000  0.575000
Ta1054  Ta  0.050000  0.400000  0.550000
W1078  W  0.075000  0.425000  0.575000
Ta1055  Ta  0.100000  0.400000  0.550000
Mo1073  Mo  0.125000  0.425000  0.575000
Nb1051  Nb  0.150000  0.400000  0.550000
W1079  W  0.175000  0.425000  0.575000
Mo1074  Mo  0.200000  0.400000  0.550000
Nb1052  Nb  0.225000  0.425000  0.575000
Ta1056  Ta  0.250000  0.400000  0.550000
Mo1075  Mo  0.275000  0.425000  0.575000
Nb1053  Nb  0.300000  0.400000  0.550000
Nb1054  Nb  0.325000  0.425000  0.575000
Mo1076  Mo  0.350000  0.400000  0.550000
Nb1055  Nb  0.375000  0.425000  0.575000
Nb1056  Nb  0.400000  0.400000  0.550000
W1080  W  0.425000  0.425000  0.575000
Nb1057  Nb  0.450000  0.400000  0.550000
Nb1058  Nb  0.475000  0.425000  0.575000
W1081  W  -0.000000  0.450000  0.550000
Mo1077  Mo  0.025000  0.475000  0.575000
W1082  W  0.050000  0.450000  0.550000
W1083  W  0.075000  0.475000  0.575000
W1084  W  0.100000  0.450000  0.550000
Mo1078  Mo  0.125000  0.475000  0.575000
Mo1079  Mo  0.150000  0.450000  0.550000
W1085  W  0.175000  0.475000  0.575000
Nb1059  Nb  0.200000  0.450000  0.550000
Mo1080  Mo  0.225000  0.475000  0.575000
Nb1060  Nb  0.250000  0.450000  0.550000
Nb1061  Nb  0.275000  0.475000  0.575000
Mo1081  Mo  0.300000  0.450000  0.550000
Ta1057  Ta  0.325000  0.475000  0.575000
Ta1058  Ta  0.350000  0.450000  0.550000
Nb1062  Nb  0.375000  0.475000  0.575000
Mo1082  Mo  0.400000  0.450000  0.550000
Mo1083  Mo  0.425000  0.475000  0.575000
Mo1084  Mo  0.450000  0.450000  0.550000
Ta1059  Ta  0.475000  0.475000  0.575000
Mo1085  Mo  -0.000000  0.500000  0.550000
Ta1060  Ta  0.025000  0.525000  0.575000
Ta1061  Ta  0.050000  0.500000  0.550000
Mo1086  Mo  0.075000  0.525000  0.575000
Mo1087  Mo  0.100000  0.500000  0.550000
Nb1063  Nb  0.125000  0.525000  0.575000
Mo1088  Mo  0.150000  0.500000  0.550000
W1086  W  0.175000  0.525000  0.575000
W1087  W  0.200000  0.500000  0.550000
Ta1062  Ta  0.225000  0.525000  0.575000
Ta1063  Ta  0.250000  0.500000  0.550000
Mo1089  Mo  0.275000  0.525000  0.575000
Ta1064  Ta  0.300000  0.500000  0.550000
W1088  W  0.325000  0.525000  0.575000
W1089  W  0.350000  0.500000  0.550000
W1090  W  0.375000  0.525000  0.575000
Mo1090  Mo  0.400000  0.500000  0.550000
Ta1065  Ta  0.425000  0.525000  0.575000
W1091  W  0.450000  0.500000  0.550000
W1092  W  0.475000  0.525000  0.575000
W1093  W  -0.000000  0.550000  0.550000
W1094  W  0.025000  0.575000  0.575000
Mo1091  Mo  0.050000  0.550000  0.550000
W1095  W  0.075000  0.575000  0.575000
W1096  W  0.100000  0.550000  0.550000
Nb1064  Nb  0.125000  0.575000  0.575000
W1097  W  0.150000  0.550000  0.550000
Mo1092  Mo  0.175000  0.575000  0.575000
W1098  W  0.200000  0.550000  0.550000
Ta1066  Ta  0.225000  0.575000  0.575000
Ta1067  Ta  0.250000  0.550000  0.550000
W1099  W  0.275000  0.575000  0.575000
Ta1068  Ta  0.300000  0.550000  0.550000
Nb1065  Nb  0.325000  0.575000  0.575000
Ta1069  Ta  0.350000  0.550000  0.550000
W1100  W  0.375000  0.575000  0.575000
Mo1093  Mo  0.400000  0.550000  0.550000
Ta1070  Ta  0.425000  0.575000  0.575000
Mo1094  Mo  0.450000  0.550000  0.550000
Ta1071  Ta  0.475000  0.575000  0.575000
Mo1095  Mo  -0.000000  0.600000  0.550000
W1101  W  0.025000  0.625000  0.575000
Nb1066  Nb  0.050000  0.600000  0.550000
Nb1067  Nb  0.075000  0.625000  0.575000
Mo1096  Mo  0.100000  0.600000  0.550000
W1102  W  0.125000  0.625000  0.575000
Nb1068  Nb  0.150000  0.600000  0.550000
Mo1097  Mo  0.175000  0.625000  0.575000
Ta1072  Ta  0.200000  0.600000  0.550000
W1103  W  0.225000  0.625000  0.575000
Nb1069  Nb  0.250000  0.600000  0.550000
Ta1073  Ta  0.275000  0.625000  0.575000
Nb1070  Nb  0.300000  0.600000  0.550000
Ta1074  Ta  0.325000  0.625000  0.575000
Ta1075  Ta  0.350000  0.600000  0.550000
W1104  W  0.375000  0.625000  0.575000
Nb1071  Nb  0.400000  0.600000  0.550000
Mo1098  Mo  0.425000  0.625000  0.575000
Nb1072  Nb  0.450000  0.600000  0.550000
Mo1099  Mo  0.475000  0.625000  0.575000
Mo1100  Mo  -0.000000  0.650000  0.550000
W1105  W  0.050000  0.650000  0.550000
Nb1073  Nb  0.100000  0.650000  0.550000
Ta1076  Ta  0.150000  0.650000  0.550000
Ta1077  Ta  0.200000  0.650000  0.550000
Nb1074  Nb  0.250000  0.650000  0.550000
W1106  W  0.300000  0.650000  0.550000
Mo1101  Mo  0.350000  0.650000  0.550000
Nb1075  Nb  0.400000  0.650000  0.550000
Mo1102  Mo  0.450000  0.650000  0.550000
W1107  W  -0.000000  0.350000  0.600000
Mo1103  Mo  0.025000  0.375000  0.625000
Mo1104  Mo  0.050000  0.350000  0.600000
Ta1078  Ta  0.075000  0.375000  0.625000
Nb1076  Nb  0.100000  0.350000  0.600000
Nb1077  Nb  0.125000  0.375000  0.625000
W1108  W  0.150000  0.350000  0.600000
Ta1079  Ta  0.175000  0.375000  0.625000
W1109  W  0.200000  0.350000  0.600000
W1110  W  0.225000  0.375000  0.625000
W1111  W  0.250000  0.350000  0.600000
Ta1080  Ta  0.275000  0.375000  0.625000
Mo1105  Mo  0.300000  0.350000  0.600000
Ta1081  Ta  0.325000  0.375000  0.625000
Mo1106  Mo  0.350000  0.350000  0.600000
Mo1107  Mo  0.375000  0.375000  0.625000
Mo1108  Mo  0.400000  0.350000  0.600000
Ta1082  Ta  0.425000  0.375000  0.625000
W1112  W  0.450000  0.350000  0.600000
Nb1078  Nb  0.475000  0.375000  0.625000
W1113  W  -0.000000  0.400000  0.600000
W1114  W  0.025000  0.425000  0.625000
Nb1079  Nb  0.050000  0.400000  0.600000
W1115  W  0.075000  0.425000  0.625000
Nb1080  Nb  0.100000  0.400000  0.600000
Mo1109  Mo  0.125000  0.425000  0.625000
Nb1081  Nb  0.150000  0.400000  0.600000
W1116  W  0.175000  0.425000  0.625000
Mo1110  Mo  0.200000  0.400000  0.600000
Ta1083  Ta  0.225000  0.425000  0.625000
Mo1111  Mo  0.250000  0.400000  0.600000
Ta1084  Ta  0.275000  0.425000  0.625000
W1117  W  0.300000  0.400000  0.600000
Mo1112  Mo  0.325000  0.425000  0.625000
W1118  W  0.350000  0.400000  0.600000
Ta1085  Ta  0.375000  0.425000  0.625000
Ta1086  Ta  0.400000  0.400000  0.600000
Nb1082  Nb  0.425000  0.425000  0.625000
Ta1087  Ta  0.450000  0.400000  0.600000
Mo1113  Mo  0.475000  0.425000  0.625000
W1119  W  -0.000000  0.450000  0.600000
Nb1083  Nb  0.025000  0.475000  0.625000
Nb1084  Nb  0.050000  0.450000  0.600000
Mo1114  Mo  0.075000  0.475000  0.625000
Ta1088  Ta  0.100000  0.450000  0.600000
W1120  W  0.125000  0.475000  0.625000
Mo1115  Mo  0.150000  0.450000  0.600000
Nb1085  Nb  0.175000  0.475000  0.625000
Ta1089  Ta  0.200000  0.450000  0.600000
W1121  W  0.225000  0.475000  0.625000
W1122  W  0.250000  0.450000  0.600000
Nb1086  Nb  0.275000  0.475000  0.625000
Mo1116  Mo  0.300000  0.450000  0.600000
Ta1090  Ta  0.325000  0.475000  0.625000
Mo1117  Mo  0.350000  0.450000  0.600000
W1123  W  0.375000  0.475000  0.625000
Nb1087  Nb  0.400000  0.450000  0.600000
Ta1091  Ta  0.425000  0.475000  0.625000
Mo1118  Mo  0.450000  0.450000  0.600000
Mo1119  Mo  0.475000  0.475000  0.625000
W1124  W  -0.000000  0.500000  0.600000
Mo1120  Mo  0.025000  0.525000  0.625000
Nb1088  Nb  0.050000  0.500000  0.600000
Ta1092  Ta  0.075000  0.525000  0.625000
Mo1121  Mo  0.100000  0.500000  0.600000
W1125  W  0.125000  0.525000  0.625000
Mo1122  Mo  0.150000  0.500000  0.600000
Mo1123  Mo  0.175000  0.525000  0.625000
W1126  W  0.200000  0.500000  0.600000
Ta1093  Ta  0.225000  0.525000  0.625000
W1127  W  0.250000  0.500000  0.600000
Nb1089  Nb  0.275000  0.525000  0.625000
Nb1090  Nb  0.300000  0.500000  0.600000
W1128  W  0.325000  0.525000  0.625000
W1129  W  0.350000  0.500000  0.600000
Ta1094  Ta  0.375000  0.525000  0.625000
Nb1091  Nb  0.400000  0.500000  0.600000
Nb1092  Nb  0.425000  0.525000  0.625000
Ta1095  Ta  0.450000  0.500000  0.600000
W1130  W  0.475000  0.525000  0.625000
W1131  W  -0.000000  0.550000  0.600000
Nb1093  Nb  0.025000  0.575000  0.625000
Nb1094  Nb  0.050000  0.550000  0.600000
W1132  W  0.075000  0.575000  0.625000
W1133  W  0.100000  0.550000  0.600000
Ta1096  Ta  0.125000  0.575000  0.625000
Mo1124  Mo  0.150000  0.550000  0.600000
Nb1095  Nb  0.175000  0.575000  0.625000
Nb1096  Nb  0.200000  0.550000  0.600000
W1134  W  0.225000  0.575000  0.625000
Ta1097  Ta  0.250000  0.550000  0.600000
Mo1125  Mo  0.275000  0.575000  0.625000
Mo1126  Mo  0.300000  0.550000  0.600000
Ta1098  Ta  0.325000  0.575000  0.625000
Ta1099  Ta  0.350000  0.550000  0.600000
Ta1100  Ta  0.375000  0.575000  0.625000
W1135  W  0.400000  0.550000  0.600000
Mo1127  Mo  0.425000  0.575000  0.625000
Ta1101  Ta  0.450000  0.550000  0.600000
Ta1102  Ta  0.475000  0.575000  0.625000
Ta1103  Ta  -0.000000  0.600000  0.600000
Mo1128  Mo  0.025000  0.625000  0.625000
Mo1129  Mo  0.050000  0.600000  0.600000
Ta1104  Ta  0.075000  0.625000  0.625000
W1136  W  0.100000  0.600000  0.600000
W1137  W  0.125000  0.625000  0.625000
W1138  W  0.150000  0.600000  0.600000
Mo1130  Mo  0.175000  0.625000  0.625000
W1139  W  0.200000  0.600000  0.600000
Nb1097  Nb  0.225000  0.625000  0.625000
Ta1105  Ta  0.250000  0.600000  0.600000
Nb1098  Nb  0.275000  0.625000  0.625000
Nb1099  Nb  0.300000  0.600000  0.600000
Mo1131  Mo  0.325000  0.625000  0.625000
Ta1106  Ta  0.350000  0.600000  0.600000
Nb1100  Nb  0.375000  0.625000  0.625000
Mo1132  Mo  0.400000  0.600000  0.600000
W1140  W  0.425000  0.625000  0.625000
W1141  W  0.450000  0.600000  0.600000
Mo1133  Mo  0.475000  0.625000  0.625000
W1142  W  -0.000000  0.650000  0.600000
Nb1101  Nb  0.050000  0.650000  0.600000
W1143  W  0.100000  0.650000  0.600000
Nb1102  Nb  0.150000  0.650000  0.600000
Ta1107  Ta  0.200000  0.650000  0.600000
Ta1108  Ta  0.250000  0.650000  0.600000
W1144  W  0.300000  0.650000  0.600000
Mo1134  Mo  0.350000  0.650000  0.600000
Ta1109  Ta  0.400000  0.650000  0.600000
Nb1103  Nb  0.450000  0.650000  0.600000
Mo1135  Mo  -0.000000  0.350000  0.650000
W1145  W  0.025000  0.375000  0.675000
Ta1110  Ta  0.050000  0.350000  0.650000
Mo1136  Mo  0.075000  0.375000  0.675000
W1146  W  0.100000  0.350000  0.650000
Nb1104  Nb  0.125000  0.375000  0.675000
W1147  W  0.150000  0.350000  0.650000
W1148  W  0.175000  0.375000  0.675000
Nb1105  Nb  0.200000  0.350000  0.650000
Ta1111  Ta  0.225000  0.375000  0.675000
Ta1112  Ta  0.250000  0.350000  0.650000
Nb1106  Nb  0.275000  0.375000  0.675000
W1149  W  0.300000  0.350000  0.650000
Ta1113  Ta  0.325000  0.375000  0.675000
Mo1137  Mo  0.350000  0.350000  0.650000
Ta1114  Ta  0.375000  0.375000  0.675000
W1150  W  0.400000  0.350000  0.650000
W1151  W  0.425000  0.375000  0.675000
Ta1115  Ta  0.450000  0.350000  0.650000
Nb1107  Nb  0.475000  0.375000  0.675000
Nb1108  Nb  -0.000000  0.400000  0.650000
W1152  W  0.025000  0.425000  0.675000
W1153  W  0.050000  0.400000  0.650000
Ta1116  Ta  0.075000  0.425000  0.675000
Nb1109  Nb  0.100000  0.400000  0.650000
W1154  W  0.125000  0.425000  0.675000
Ta1117  Ta  0.150000  0.400000  0.650000
W1155  W  0.175000  0.425000  0.675000
Mo1138  Mo  0.200000  0.400000  0.650000
Ta1118  Ta  0.225000  0.425000  0.675000
Mo1139  Mo  0.250000  0.400000  0.650000
W1156  W  0.275000  0.425000  0.675000
W1157  W  0.300000  0.400000  0.650000
W1158  W  0.325000  0.425000  0.675000
Ta1119  Ta  0.350000  0.400000  0.650000
Mo1140  Mo  0.375000  0.425000  0.675000
Ta1120  Ta  0.400000  0.400000  0.650000
Nb1110  Nb  0.425000  0.425000  0.675000
Mo1141  Mo  0.450000  0.400000  0.650000
W1159  W  0.475000  0.425000  0.675000
Ta1121  Ta  -0.000000  0.450000  0.650000
Ta1122  Ta  0.025000  0.475000  0.675000
Mo1142  Mo  0.050000  0.450000  0.650000
Ta1123  Ta  0.075000  0.475000  0.675000
Mo1143  Mo  0.100000  0.450000  0.650000
Mo1144  Mo  0.125000  0.475000  0.675000
Ta1124  Ta  0.150000  0.450000  0.650000
W1160  W  0.175000  0.475000  0.675000
Ta1125  Ta  0.200000  0.450000  0.650000
Ta1126  Ta  0.225000  0.475000  0.675000
Ta1127  Ta  0.250000  0.450000  0.650000
Nb1111  Nb  0.275000  0.475000  0.675000
W1161  W  0.300000  0.450000  0.650000
Ta1128  Ta  0.325000  0.475000  0.675000
Ta1129  Ta  0.350000  0.450000  0.650000
Ta1130  Ta  0.375000  0.475000  0.675000
Mo1145  Mo  0.400000  0.450000  0.650000
Nb1112  Nb  0.425000  0.475000  0.675000
W1162  W  0.450000  0.450000  0.650000
Nb1113  Nb  0.475000  0.475000  0.675000
Ta1131  Ta  -0.000000  0.500000  0.650000
Mo1146  Mo  0.025000  0.525000  0.675000
W1163  W  0.050000  0.500000  0.650000
Nb1114  Nb  0.075000  0.525000  0.675000
W1164  W  0.100000  0.500000  0.650000
Mo1147  Mo  0.125000  0.525000  0.675000
Nb1115  Nb  0.150000  0.500000  0.650000
Nb1116  Nb  0.175000  0.525000  0.675000
Ta1132  Ta  0.200000  0.500000  0.650000
Ta1133  Ta  0.225000  0.525000  0.675000
Mo1148  Mo  0.250000  0.500000  0.650000
Nb1117  Nb  0.275000  0.525000  0.675000
W1165  W  0.300000  0.500000  0.650000
Ta1134  Ta  0.325000  0.525000  0.675000
W1166  W  0.350000  0.500000  0.650000
Mo1149  Mo  0.375000  0.525000  0.675000
W1167  W  0.400000  0.500000  0.650000
Nb1118  Nb  0.425000  0.525000  0.675000
Mo1150  Mo  0.450000  0.500000  0.650000
W1168  W  0.475000  0.525000  0.675000
Mo1151  Mo  -0.000000  0.550000  0.650000
Ta1135  Ta  0.025000  0.575000  0.675000
Mo1152  Mo  0.050000  0.550000  0.650000
Mo1153  Mo  0.075000  0.575000  0.675000
Ta1136  Ta  0.100000  0.550000  0.650000
Nb1119  Nb  0.125000  0.575000  0.675000
Mo1154  Mo  0.150000  0.550000  0.650000
Mo1155  Mo  0.175000  0.575000  0.675000
W1169  W  0.200000  0.550000  0.650000
Mo1156  Mo  0.225000  0.575000  0.675000
W1170  W  0.250000  0.550000  0.650000
Nb1120  Nb  0.275000  0.575000  0.675000
Mo1157  Mo  0.300000  0.550000  0.650000
Ta1137  Ta  0.325000  0.575000  0.675000
Ta1138  Ta  0.350000  0.550000  0.650000
W1171  W  0.375000  0.575000  0.675000
W1172  W  0.400000  0.550000  0.650000
W1173  W  0.425000  0.575000  0.675000
Nb1121  Nb  0.450000  0.550000  0.650000
Mo1158  Mo  0.475000  0.575000  0.675000
Mo1159  Mo  -0.000000  0.600000  0.650000
Ta1139  Ta  0.025000  0.625000  0.675000
Nb1122  Nb  0.050000  0.600000  0.650000
Mo1160  Mo  0.075000  0.625000  0.675000
Ta1140  Ta  0.100000  0.600000  0.650000
Nb1123  Nb  0.125000  0.625000  0.675000
Mo1161  Mo  0.150000  0.600000  0.650000
W1174  W  0.175000  0.625000  0.675000
W1175  W  0.200000  0.600000  0.650000
Nb1124  Nb  0.225000  0.625000  0.675000
Mo1162  Mo  0.250000  0.600000  0.650000
W1176  W  0.275000  0.625000  0.675000
W1177  W  0.300000  0.600000  0.650000
Nb1125  Nb  0.325000  0.625000  0.675000
W1178  W  0.350000  0.600000  0.650000
W1179  W  0.375000  0.625000  0.675000
Mo1163  Mo  0.400000  0.600000  0.650000
Mo1164  Mo  0.425000  0.625000  0.675000
Nb1126  Nb  0.450000  0.600000  0.650000
Mo1165  Mo  0.475000  0.625000  0.675000
Nb1127  Nb  -0.000000  0.650000  0.650000
Ta1141  Ta  0.050000  0.650000  0.650000
Nb1128  Nb  0.100000  0.650000  0.650000
Ta1142  Ta  0.150000  0.650000  0.650000
W1180  W  0.200000  0.650000  0.650000
Mo1166  Mo  0.250000  0.650000  0.650000
Nb1129  Nb  0.300000  0.650000  0.650000
W1181  W  0.350000  0.650000  0.650000
Ta1143  Ta  0.400000  0.650000  0.650000
Ta1144  Ta  0.450000  0.650000  0.650000
Ta1145  Ta  -0.000000  0.350000  0.700000
W1182  W  0.025000  0.375000  0.725000
W1183  W  0.050000  0.350000  0.700000
Nb1130  Nb  0.075000  0.375000  0.725000
Mo1167  Mo  0.100000  0.350000  0.700000
Nb1131  Nb  0.125000  0.375000  0.725000
W1184  W  0.150000  0.350000  0.700000
Mo1168  Mo  0.175000  0.375000  0.725000
W1185  W  0.200000  0.350000  0.700000
W1186  W  0.225000  0.375000  0.725000
Nb1132  Nb  0.250000  0.350000  0.700000
W1187  W  0.275000  0.375000  0.725000
Mo1169  Mo  0.300000  0.350000  0.700000
Nb1133  Nb  0.325000  0.375000  0.725000
W1188  W  0.350000  0.350000  0.700000
Ta1146  Ta  0.375000  0.375000  0.725000
Ta1147  Ta  0.400000  0.350000  0.700000
Mo1170  Mo  0.425000  0.375000  0.725000
W1189  W  0.450000  0.350000  0.700000
Nb1134  Nb  0.475000  0.375000  0.725000
W1190  W  -0.000000  0.400000  0.700000
Ta1148  Ta  0.025000  0.425000  0.725000
Mo1171  Mo  0.050000  0.400000  0.700000
W1191  W  0.075000  0.425000  0.725000
Mo1172  Mo  0.100000  0.400000  0.700000
W1192  W  0.125000  0.425000  0.725000
Mo1173  Mo  0.150000  0.400000  0.700000
W1193  W  0.175000  0.425000  0.725000
W1194  W  0.200000  0.400000  0.700000
Ta1149  Ta  0.225000  0.425000  0.725000
Ta1150  Ta  0.250000  0.400000  0.700000
Mo1174  Mo  0.275000  0.425000  0.725000
W1195  W  0.300000  0.400000  0.700000
Ta1151  Ta  0.325000  0.425000  0.725000
Mo1175  Mo  0.350000  0.400000  0.700000
Nb1135  Nb  0.375000  0.425000  0.725000
Nb1136  Nb  0.400000  0.400000  0.700000
W1196  W  0.425000  0.425000  0.725000
W1197  W  0.450000  0.400000  0.700000
W1198  W  0.475000  0.425000  0.725000
Mo1176  Mo  -0.000000  0.450000  0.700000
Mo1177  Mo  0.025000  0.475000  0.725000
Nb1137  Nb  0.050000  0.450000  0.700000
Ta1152  Ta  0.075000  0.475000  0.725000
Nb1138  Nb  0.100000  0.450000  0.700000
Mo1178  Mo  0.125000  0.475000  0.725000
Mo1179  Mo  0.150000  0.450000  0.700000
Nb1139  Nb  0.175000  0.475000  0.725000
Ta1153  Ta  0.200000  0.450000  0.700000
Ta1154  Ta  0.225000  0.475000  0.725000
W1199  W  0.250000  0.450000  0.700000
Nb1140  Nb  0.275000  0.475000  0.725000
Ta1155  Ta  0.300000  0.450000  0.700000
Nb1141  Nb  0.325000  0.475000  0.725000
W1200  W  0.350000  0.450000  0.700000
Mo1180  Mo  0.375000  0.475000  0.725000
Ta1156  Ta  0.400000  0.450000  0.700000
Mo1181  Mo  0.425000  0.475000  0.725000
W1201  W  0.450000  0.450000  0.700000
Mo1182  Mo  0.475000  0.475000  0.725000
Ta1157  Ta  -0.000000  0.500000  0.700000
W1202  W  0.025000  0.525000  0.725000
Ta1158  Ta  0.050000  0.500000  0.700000
Nb1142  Nb  0.075000  0.525000  0.725000
W1203  W  0.100000  0.500000  0.700000
Mo1183  Mo  0.125000  0.525000  0.725000
Mo1184  Mo  0.150000  0.500000  0.700000
Ta1159  Ta  0.175000  0.525000  0.725000
W1204  W  0.200000  0.500000  0.700000
Nb1143  Nb  0.225000  0.525000  0.725000
W1205  W  0.250000  0.500000  0.700000
Mo1185  Mo  0.275000  0.525000  0.725000
Ta1160  Ta  0.300000  0.500000  0.700000
Ta1161  Ta  0.325000  0.525000  0.725000
W1206  W  0.350000  0.500000  0.700000
Mo1186  Mo  0.375000  0.525000  0.725000
W1207  W  0.400000  0.500000  0.700000
Nb1144  Nb  0.425000  0.525000  0.725000
W1208  W  0.450000  0.500000  0.700000
Ta1162  Ta  0.475000  0.525000  0.725000
Nb1145  Nb  -0.000000  0.550000  0.700000
Mo1187  Mo  0.025000  0.575000  0.725000
Ta1163  Ta  0.050000  0.550000  0.700000
Mo1188  Mo  0.075000  0.575000  0.725000
W1209  W  0.100000  0.550000  0.700000
Mo1189  Mo  0.125000  0.575000  0.725000
Nb1146  Nb  0.150000  0.550000  0.700000
W1210  W  0.175000  0.575000  0.725000
Ta1164  Ta  0.200000  0.550000  0.700000
W1211  W  0.225000  0.575000  0.725000
Ta1165  Ta  0.250000  0.550000  0.700000
Nb1147  Nb  0.275000  0.575000  0.725000
Ta1166  Ta  0.300000  0.550000  0.700000
Nb1148  Nb  0.325000  0.575000  0.725000
Mo1190  Mo  0.350000  0.550000  0.700000
Mo1191  Mo  0.375000  0.575000  0.725000
Ta1167  Ta  0.400000  0.550000  0.700000
Ta1168  Ta  0.425000  0.575000  0.725000
W1212  W  0.450000  0.550000  0.700000
Ta1169  Ta  0.475000  0.575000  0.725000
Nb1149  Nb  -0.000000  0.600000  0.700000
W1213  W  0.025000  0.625000  0.725000
W1214  W  0.050000  0.600000  0.700000
W1215  W  0.075000  0.625000  0.725000
Nb1150  Nb  0.100000  0.600000  0.700000
W1216  W  0.125000  0.625000  0.725000
Nb1151  Nb  0.150000  0.600000  0.700000
Nb1152  Nb  0.175000  0.625000  0.725000
Mo1192  Mo  0.200000  0.600000  0.700000
W1217  W  0.225000  0.625000  0.725000
Mo1193  Mo  0.250000  0.600000  0.700000
Ta1170  Ta  0.275000  0.625000  0.725000
Mo1194  Mo  0.300000  0.600000  0.700000
W1218  W  0.325000  0.625000  0.725000
W1219  W  0.350000  0.600000  0.700000
Mo1195  Mo  0.375000  0.625000  0.725000
Ta1171  Ta  0.400000  0.600000  0.700000
Nb1153  Nb  0.425000  0.625000  0.725000
Nb1154  Nb  0.450000  0.600000  0.700000
Ta1172  Ta  0.475000  0.625000  0.725000
Mo1196  Mo  -0.000000  0.650000  0.700000
Nb1155  Nb  0.050000  0.650000  0.700000
Mo1197  Mo  0.100000  0.650000  0.700000
Ta1173  Ta  0.150000  0.650000  0.700000
Ta1174  Ta  0.200000  0.650000  0.700000
Nb1156  Nb  0.250000  0.650000  0.700000
Nb1157  Nb  0.300000  0.650000  0.700000
Ta1175  Ta  0.350000  0.650000  0.700000
Ta1176  Ta  0.400000  0.650000  0.700000
Nb1158  Nb  0.450000  0.650000  0.700000
W1220  W  -0.000000  0.350000  0.750000
W1221  W  0.025000  0.375000  0.775000
W1222  W  0.050000  0.350000  0.750000
Ta1177  Ta  0.075000  0.375000  0.775000
Mo1198  Mo  0.100000  0.350000  0.750000
W1223  W  0.125000  0.375000  0.775000
W1224  W  0.150000  0.350000  0.750000
Ta1178  Ta  0.175000  0.375000  0.775000
Ta1179  Ta  0.200000  0.350000  0.750000
Nb1159  Nb  0.225000  0.375000  0.775000
W1225  W  0.250000  0.350000  0.750000
Ta1180  Ta  0.275000  0.375000  0.775000
Ta1181  Ta  0.300000  0.350000  0.750000
Mo1199  Mo  0.325000  0.375000  0.775000
Mo1200  Mo  0.350000  0.350000  0.750000
Ta1182  Ta  0.375000  0.375000  0.775000
Nb1160  Nb  0.400000  0.350000  0.750000
Mo1201  Mo  0.425000  0.375000  0.775000
W1226  W  0.450000  0.350000  0.750000
Mo1202  Mo  0.475000  0.375000  0.775000
Mo1203  Mo  -0.000000  0.400000  0.750000
Nb1161  Nb  0.025000  0.425000  0.775000
Nb1162  Nb  0.050000  0.400000  0.750000
W1227  W  0.075000  0.425000  0.775000
Ta1183  Ta  0.100000  0.400000  0.750000
W1228  W  0.125000  0.425000  0.775000
Nb1163  Nb  0.150000  0.400000  0.750000
Mo1204  Mo  0.175000  0.425000  0.775000
Nb1164  Nb  0.200000  0.400000  0.750000
Mo1205  Mo  0.225000  0.425000  0.775000
W1229  W  0.250000  0.400000  0.750000
Ta1184  Ta  0.275000  0.425000  0.775000
W1230  W  0.300000  0.400000  0.750000
Ta1185  Ta  0.325000  0.425000  0.775000
Nb1165  Nb  0.350000  0.400000  0.750000
W1231  W  0.375000  0.425000  0.775000
W1232  W  0.400000  0.400000  0.750000
Mo1206  Mo  0.425000  0.425000  0.775000
Mo1207  Mo  0.450000  0.400000  0.750000
W1233  W  0.475000  0.425000  0.775000
Mo1208  Mo  -0.000000  0.450000  0.750000
W1234  W  0.025000  0.475000  0.775000
Nb1166  Nb  0.050000  0.450000  0.750000
Mo1209  Mo  0.075000  0.475000  0.775000
W1235  W  0.100000  0.450000  0.750000
Ta1186  Ta  0.125000  0.475000  0.775000
Mo1210  Mo  0.150000  0.450000  0.750000
Ta1187  Ta  0.175000  0.475000  0.775000
Ta1188  Ta  0.200000  0.450000  0.750000
W1236  W  0.225000  0.475000  0.775000
W1237  W  0.250000  0.450000  0.750000
Ta1189  Ta  0.275000  0.475000  0.775000
Mo1211  Mo  0.300000  0.450000  0.750000
W1238  W  0.325000  0.475000  0.775000
Nb1167  Nb  0.350000  0.450000  0.750000
Mo1212  Mo  0.375000  0.475000  0.775000
Mo1213  Mo  0.400000  0.450000  0.750000
W1239  W  0.425000  0.475000  0.775000
W1240  W  0.450000  0.450000  0.750000
W1241  W  0.475000  0.475000  0.775000
W1242  W  -0.000000  0.500000  0.750000
Nb1168  Nb  0.025000  0.525000  0.775000
Ta1190  Ta  0.050000  0.500000  0.750000
W1243  W  0.075000  0.525000  0.775000
W1244  W  0.100000  0.500000  0.750000
Nb1169  Nb  0.125000  0.525000  0.775000
Ta1191  Ta  0.150000  0.500000  0.750000
Nb1170  Nb  0.175000  0.525000  0.775000
Ta1192  Ta  0.200000  0.500000  0.750000
Nb1171  Nb  0.225000  0.525000  0.775000
W1245  W  0.250000  0.500000  0.750000
Ta1193  Ta  0.275000  0.525000  0.775000
Mo1214  Mo  0.300000  0.500000  0.750000
Ta1194  Ta  0.325000  0.525000  0.775000
Nb1172  Nb  0.350000  0.500000  0.750000
W1246  W  0.375000  0.525000  0.775000
W1247  W  0.400000  0.500000  0.750000
Mo1215  Mo  0.425000  0.525000  0.775000
W1248  W  0.450000  0.500000  0.750000
Ta1195  Ta  0.475000  0.525000  0.775000
Mo1216  Mo  -0.000000  0.550000  0.750000
Mo1217  Mo  0.025000  0.575000  0.775000
W1249  W  0.050000  0.550000  0.750000
W1250  W  0.075000  0.575000  0.775000
Nb1173  Nb  0.100000  0.550000  0.750000
Mo1218  Mo  0.125000  0.575000  0.775000
Nb1174  Nb  0.150000  0.550000  0.750000
W1251  W  0.175000  0.575000  0.775000
Ta1196  Ta  0.200000  0.550000  0.750000
Ta1197  Ta  0.225000  0.575000  0.775000
W1252  W  0.250000  0.550000  0.750000
Mo1219  Mo  0.275000  0.575000  0.775000
Ta1198  Ta  0.300000  0.550000  0.750000
W1253  W  0.325000  0.575000  0.775000
W1254  W  0.350000  0.550000  0.750000
W1255  W  0.375000  0.575000  0.775000
Ta1199  Ta  0.400000  0.550000  0.750000
Ta1200  Ta  0.425000  0.575000  0.775000
Ta1201  Ta  0.450000  0.550000  0.750000
W1256  W  0.475000  0.575000  0.775000
Ta1202  Ta  -0.000000  0.600000  0.750000
W1257  W  0.025000  0.625000  0.775000
W1258  W  0.050000  0.600000  0.750000
Mo1220  Mo  0.075000  0.625000  0.775000
Nb1175  Nb  0.100000  0.600000  0.750000
Ta1203  Ta  0.125000  0.625000  0.775000
Ta1204  Ta  0.150000  0.600000  0.750000
Nb1176  Nb  0.175000  0.625000  0.775000
Mo1221  Mo  0.200000  0.600000  0.750000
W1259  W  0.225000  0.625000  0.775000
W1260  W  0.250000  0.600000  0.750000
Mo1222  Mo  0.275000  0.625000  0.775000
Mo1223  Mo  0.300000  0.600000  0.750000
Mo1224  Mo  0.325000  0.625000  0.775000
Ta1205  Ta  0.350000  0.600000  0.750000
Mo1225  Mo  0.375000  0.625000  0.775000
Nb1177  Nb  0.400000  0.600000  0.750000
Mo1226  Mo  0.425000  0.625000  0.775000
W1261  W  0.450000  0.600000  0.750000
Nb1178  Nb  0.475000  0.625000  0.775000
Mo1227  Mo  -0.000000  0.650000  0.750000
Ta1206  Ta  0.050000  0.650000  0.750000
Mo1228  Mo  0.100000  0.650000  0.750000
Ta1207  Ta  0.150000  0.650000  0.750000
Mo1229  Mo  0.200000  0.650000  0.750000
Mo1230  Mo  0.250000  0.650000  0.750000
W1262  W  0.300000  0.650000  0.750000
Nb1179  Nb  0.350000  0.650000  0.750000
W1263  W  0.400000  0.650000  0.750000
W1264  W  0.450000  0.650000  0.750000
Ta1208  Ta  -0.000000  0.350000  0.800000
Ta1209  Ta  0.025000  0.375000  0.825000
W1265  W  0.050000  0.350000  0.800000
Mo1231  Mo  0.075000  0.375000  0.825000
W1266  W  0.100000  0.350000  0.800000
Nb1180  Nb  0.125000  0.375000  0.825000
W1267  W  0.150000  0.350000  0.800000
W1268  W  0.175000  0.375000  0.825000
Ta1210  Ta  0.200000  0.350000  0.800000
W1269  W  0.225000  0.375000  0.825000
Ta1211  Ta  0.250000  0.350000  0.800000
Mo1232  Mo  0.275000  0.375000  0.825000
W1270  W  0.300000  0.350000  0.800000
Mo1233  Mo  0.325000  0.375000  0.825000
W1271  W  0.350000  0.350000  0.800000
Ta1212  Ta  0.375000  0.375000  0.825000
Ta1213  Ta  0.400000  0.350000  0.800000
Ta1214  Ta  0.425000  0.375000  0.825000
Ta1215  Ta  0.450000  0.350000  0.800000
Mo1234  Mo  0.475000  0.375000  0.825000
Nb1181  Nb  -0.000000  0.400000  0.800000
Nb1182  Nb  0.025000  0.425000  0.825000
Mo1235  Mo  0.050000  0.400000  0.800000
Ta1216  Ta  0.075000  0.425000  0.825000
Ta1217  Ta  0.100000  0.400000  0.800000
Nb1183  Nb  0.125000  0.425000  0.825000
Nb1184  Nb  0.150000  0.400000  0.800000
Nb1185  Nb  0.175000  0.425000  0.825000
Nb1186  Nb  0.200000  0.400000  0.800000
Nb1187  Nb  0.225000  0.425000  0.825000
W1272  W  0.250000  0.400000  0.800000
W1273  W  0.275000  0.425000  0.825000
Ta1218  Ta  0.300000  0.400000  0.800000
Mo1236  Mo  0.325000  0.425000  0.825000
Nb1188  Nb  0.350000  0.400000  0.800000
W1274  W  0.375000  0.425000  0.825000
W1275  W  0.400000  0.400000  0.800000
W1276  W  0.425000  0.425000  0.825000
Ta1219  Ta  0.450000  0.400000  0.800000
Mo1237  Mo  0.475000  0.425000  0.825000
Mo1238  Mo  -0.000000  0.450000  0.800000
Mo1239  Mo  0.025000  0.475000  0.825000
W1277  W  0.050000  0.450000  0.800000
Nb1189  Nb  0.075000  0.475000  0.825000
Nb1190  Nb  0.100000  0.450000  0.800000
Ta1220  Ta  0.125000  0.475000  0.825000
Ta1221  Ta  0.150000  0.450000  0.800000
Ta1222  Ta  0.175000  0.475000  0.825000
Ta1223  Ta  0.200000  0.450000  0.800000
Mo1240  Mo  0.225000  0.475000  0.825000
Nb1191  Nb  0.250000  0.450000  0.800000
W1278  W  0.275000  0.475000  0.825000
W1279  W  0.300000  0.450000  0.800000
W1280  W  0.325000  0.475000  0.825000
Ta1224  Ta  0.350000  0.450000  0.800000
Ta1225  Ta  0.375000  0.475000  0.825000
Ta1226  Ta  0.400000  0.450000  0.800000
Ta1227  Ta  0.425000  0.475000  0.825000
Nb1192  Nb  0.450000  0.450000  0.800000
Ta1228  Ta  0.475000  0.475000  0.825000
Nb1193  Nb  -0.000000  0.500000  0.800000
Ta1229  Ta  0.025000  0.525000  0.825000
Nb1194  Nb  0.050000  0.500000  0.800000
Nb1195  Nb  0.075000  0.525000  0.825000
Ta1230  Ta  0.100000  0.500000  0.800000
Mo1241  Mo  0.125000  0.525000  0.825000
Mo1242  Mo  0.150000  0.500000  0.800000
Mo1243  Mo  0.175000  0.525000  0.825000
Ta1231  Ta  0.200000  0.500000  0.800000
Nb1196  Nb  0.225000  0.525000  0.825000
Mo1244  Mo  0.250000  0.500000  0.800000
W1281  W  0.275000  0.525000  0.825000
Ta1232  Ta  0.300000  0.500000  0.800000
W1282  W  0.325000  0.525000  0.825000
Ta1233  Ta  0.350000  0.500000  0.800000
Ta1234  Ta  0.375000  0.525000  0.825000
Nb1197  Nb  0.400000  0.500000  0.800000
W1283  W  0.425000  0.525000  0.825000
W1284  W  0.450000  0.500000  0.800000
Nb1198  Nb  0.475000  0.525000  0.825000
Nb1199  Nb  -0.000000  0.550000  0.800000
W1285  W  0.025000  0.575000  0.825000
Nb1200  Nb  0.050000  0.550000  0.800000
W1286  W  0.075000  0.575000  0.825000
Nb1201  Nb  0.100000  0.550000  0.800000
Mo1245  Mo  0.125000  0.575000  0.825000
Ta1235  Ta  0.150000  0.550000  0.800000
Ta1236  Ta  0.175000  0.575000  0.825000
W1287  W  0.200000  0.550000  0.800000
Ta1237  Ta  0.225000  0.575000  0.825000
Nb1202  Nb  0.250000  0.550000  0.800000
Nb1203  Nb  0.275000  0.575000  0.825000
Nb1204  Nb  0.300000  0.550000  0.800000
Nb1205  Nb  0.325000  0.575000  0.825000
Mo1246  Mo  0.350000  0.550000  0.800000
W1288  W  0.375000  0.575000  0.825000
W1289  W  0.400000  0.550000  0.800000
Mo1247  Mo  0.425000  0.575000  0.825000
Ta1238  Ta  0.450000  0.550000  0.800000
W1290  W  0.475000  0.575000  0.825000
Ta1239  Ta  -0.000000  0.600000  0.800000
Mo1248  Mo  0.025000  0.625000  0.825000
Ta1240  Ta  0.050000  0.600000  0.800000
W1291  W  0.075000  0.625000  0.825000
Ta1241  Ta  0.100000  0.600000  0.800000
Mo1249  Mo  0.125000  0.625000  0.825000
W1292  W  0.150000  0.600000  0.800000
Ta1242  Ta  0.175000  0.625000  0.825000
W1293  W  0.200000  0.600000  0.800000
Ta1243  Ta  0.225000  0.625000  0.825000
Nb1206  Nb  0.250000  0.600000  0.800000
Ta1244  Ta  0.275000  0.625000  0.825000
Nb1207  Nb  0.300000  0.600000  0.800000
W1294  W  0.325000  0.625000  0.825000
Ta1245  Ta  0.350000  0.600000  0.800000
Mo1250  Mo  0.375000  0.625000  0.825000
Ta1246  Ta  0.400000  0.600000  0.800000
Nb1208  Nb  0.425000  0.625000  0.825000
Ta1247  Ta  0.450000  0.600000  0.800000
W1295  W  0.475000  0.625000  0.825000
Nb1209  Nb  -0.000000  0.650000  0.800000
Ta1248  Ta  0.050000  0.650000  0.800000
Nb1210  Nb  0.100000  0.650000  0.800000
Ta1249  Ta  0.150000  0.650000  0.800000
Ta1250  Ta  0.200000  0.650000  0.800000
W1296  W  0.250000  0.650000  0.800000
Mo1251  Mo  0.300000  0.650000  0.800000
Ta1251  Ta  0.350000  0.650000  0.800000
Nb1211  Nb  0.400000  0.650000  0.800000
Ta1252  Ta  0.450000  0.650000  0.800000
Ta1253  Ta  -0.000000  0.350000  0.850000
Mo1252  Mo  0.025000  0.375000  0.875000
W1297  W  0.050000  0.350000  0.850000
Nb1212  Nb  0.075000  0.375000  0.875000
W1298  W  0.100000  0.350000  0.850000
Nb1213  Nb  0.125000  0.375000  0.875000
W1299  W  0.150000  0.350000  0.850000
Mo1253  Mo  0.175000  0.375000  0.875000
W1300  W  0.200000  0.350000  0.850000
Ta1254  Ta  0.225000  0.375000  0.875000
Ta1255  Ta  0.250000  0.350000  0.850000
W1301  W  0.275000  0.375000  0.875000
Mo1254  Mo  0.300000  0.350000  0.850000
Ta1256  Ta  0.325000  0.375000  0.875000
Nb1214  Nb  0.350000  0.350000  0.850000
Ta1257  Ta  0.375000  0.375000  0.875000
W1302  W  0.400000  0.350000  0.850000
Ta1258  Ta  0.425000  0.375000  0.875000
Mo1255  Mo  0.450000  0.350000  0.850000
Nb1215  Nb  0.475000  0.375000  0.875000
W1303  W  -0.000000  0.400000  0.850000
W1304  W  0.025000  0.425000  0.875000
W1305  W  0.050000  0.400000  0.850000
W1306  W  0.075000  0.425000  0.875000
Mo1256  Mo  0.100000  0.400000  0.850000
Ta1259  Ta  0.125000  0.425000  0.875000
Nb1216  Nb  0.150000  0.400000  0.850000
Ta1260  Ta  0.175000  0.425000  0.875000
Mo1257  Mo  0.200000  0.400000  0.850000
Ta1261  Ta  0.225000  0.425000  0.875000
Mo1258  Mo  0.250000  0.400000  0.850000
Mo1259  Mo  0.275000  0.425000  0.875000
Ta1262  Ta  0.300000  0.400000  0.850000
W1307  W  0.325000  0.425000  0.875000
Mo1260  Mo  0.350000  0.400000  0.850000
Ta1263  Ta  0.375000  0.425000  0.875000
Mo1261  Mo  0.400000  0.400000  0.850000
Nb1217  Nb  0.425000  0.425000  0.875000
W1308  W  0.450000  0.400000  0.850000
Mo1262  Mo  0.475000  0.425000  0.875000
Nb1218  Nb  -0.000000  0.450000  0.850000
Mo1263  Mo  0.025000  0.475000  0.875000
Nb1219  Nb  0.050000  0.450000  0.850000
Mo1264  Mo  0.075000  0.475000  0.875000
Nb1220  Nb  0.100000  0.450000  0.850000
Mo1265  Mo  0.125000  0.475000  0.875000
Ta1264  Ta  0.150000  0.450000  0.850000
Nb1221  Nb  0.175000  0.475000  0.875000
Mo1266  Mo  0.200000  0.450000  0.850000
Nb1222  Nb  0.225000  0.475000  0.875000
Ta1265  Ta  0.250000  0.450000  0.850000
Mo1267  Mo  0.275000  0.475000  0.875000
Nb1223  Nb  0.300000  0.450000  0.850000
Mo1268  Mo  0.325000  0.475000  0.875000
Nb1224  Nb  0.350000  0.450000  0.850000
Nb1225  Nb  0.375000  0.475000  0.875000
Nb1226  Nb  0.400000  0.450000  0.850000
Nb1227  Nb  0.425000  0.475000  0.875000
W1309  W  0.450000  0.450000  0.850000
Nb1228  Nb  0.475000  0.475000  0.875000
Nb1229  Nb  -0.000000  0.500000  0.850000
Ta1266  Ta  0.025000  0.525000  0.875000
Ta1267  Ta  0.050000  0.500000  0.850000
W1310  W  0.075000  0.525000  0.875000
Mo1269  Mo  0.100000  0.500000  0.850000
W1311  W  0.125000  0.525000  0.875000
Mo1270  Mo  0.150000  0.500000  0.850000
Mo1271  Mo  0.175000  0.525000  0.875000
W1312  W  0.200000  0.500000  0.850000
Nb1230  Nb  0.225000  0.525000  0.875000
W1313  W  0.250000  0.500000  0.850000
Ta1268  Ta  0.275000  0.525000  0.875000
Mo1272  Mo  0.300000  0.500000  0.850000
W1314  W  0.325000  0.525000  0.875000
W1315  W  0.350000  0.500000  0.850000
Nb1231  Nb  0.375000  0.525000  0.875000
Ta1269  Ta  0.400000  0.500000  0.850000
Ta1270  Ta  0.425000  0.525000  0.875000
Ta1271  Ta  0.450000  0.500000  0.850000
Nb1232  Nb  0.475000  0.525000  0.875000
W1316  W  -0.000000  0.550000  0.850000
Ta1272  Ta  0.025000  0.575000  0.875000
W1317  W  0.050000  0.550000  0.850000
Mo1273  Mo  0.075000  0.575000  0.875000
Ta1273  Ta  0.100000  0.550000  0.850000
Mo1274  Mo  0.125000  0.575000  0.875000
Ta1274  Ta  0.150000  0.550000  0.850000
Mo1275  Mo  0.175000  0.575000  0.875000
Ta1275  Ta  0.200000  0.550000  0.850000
Nb1233  Nb  0.225000  0.575000  0.875000
Mo1276  Mo  0.250000  0.550000  0.850000
Nb1234  Nb  0.275000  0.575000  0.875000
Nb1235  Nb  0.300000  0.550000  0.850000
Mo1277  Mo  0.325000  0.575000  0.875000
Nb1236  Nb  0.350000  0.550000  0.850000
Nb1237  Nb  0.375000  0.575000  0.875000
Mo1278  Mo  0.400000  0.550000  0.850000
Nb1238  Nb  0.425000  0.575000  0.875000
Ta1276  Ta  0.450000  0.550000  0.850000
W1318  W  0.475000  0.575000  0.875000
Nb1239  Nb  -0.000000  0.600000  0.850000
Ta1277  Ta  0.025000  0.625000  0.875000
Mo1279  Mo  0.050000  0.600000  0.850000
Ta1278  Ta  0.075000  0.625000  0.875000
Ta1279  Ta  0.100000  0.600000  0.850000
W1319  W  0.125000  0.625000  0.875000
Nb1240  Nb  0.150000  0.600000  0.850000
W1320  W  0.175000  0.625000  0.875000
W1321  W  0.200000  0.600000  0.850000
Mo1280  Mo  0.225000  0.625000  0.875000
Nb1241  Nb  0.250000  0.600000  0.850000
Mo1281  Mo  0.275000  0.625000  0.875000
Nb1242  Nb  0.300000  0.600000  0.850000
Mo1282  Mo  0.325000  0.625000  0.875000
Mo1283  Mo  0.350000  0.600000  0.850000
Mo1284  Mo  0.375000  0.625000  0.875000
Mo1285  Mo  0.400000  0.600000  0.850000
Nb1243  Nb  0.425000  0.625000  0.875000
Nb1244  Nb  0.450000  0.600000  0.850000
Nb1245  Nb  0.475000  0.625000  0.875000
Mo1286  Mo  -0.000000  0.650000  0.850000
Mo1287  Mo  0.050000  0.650000  0.850000
Mo1288  Mo  0.100000  0.650000  0.850000
Nb1246  Nb  0.150000  0.650000  0.850000
Mo1289  Mo  0.200000  0.650000  0.850000
Nb1247  Nb  0.250000  0.650000  0.850000
Mo1290  Mo  0.300000  0.650000  0.850000
W1322  W  0.350000  0.650000  0.850000
W1323  W  0.400000  0.650000  0.850000
W1324  W  0.450000  0.650000  0.850000
Nb1248  Nb  -0.000000  0.350000  0.900000
Nb1249  Nb  0.025000  0.375000  0.925000
Nb1250  Nb  0.050000  0.350000  0.900000
Mo1291  Mo  0.075000  0.375000  0.925000
Ta1280  Ta  0.100000  0.350000  0.900000
Ta1281  Ta  0.125000  0.375000  0.925000
Mo1292  Mo  0.150000  0.350000  0.900000
W1325  W  0.175000  0.375000  0.925000
W1326  W  0.200000  0.350000  0.900000
Mo1293  Mo  0.225000  0.375000  0.925000
Ta1282  Ta  0.250000  0.350000  0.900000
W1327  W  0.275000  0.375000  0.925000
Nb1251  Nb  0.300000  0.350000  0.900000
Nb1252  Nb  0.325000  0.375000  0.925000
Mo1294  Mo  0.350000  0.350000  0.900000
Ta1283  Ta  0.375000  0.375000  0.925000
Ta1284  Ta  0.400000  0.350000  0.900000
Mo1295  Mo  0.425000  0.375000  0.925000
Nb1253  Nb  0.450000  0.350000  0.900000
Mo1296  Mo  0.475000  0.375000  0.925000
Nb1254  Nb  -0.000000  0.400000  0.900000
Nb1255  Nb  0.025000  0.425000  0.925000
W1328  W  0.050000  0.400000  0.900000
Nb1256  Nb  0.075000  0.425000  0.925000
W1329  W  0.100000  0.400000  0.900000
Mo1297  Mo  0.125000  0.425000  0.925000
Nb1257  Nb  0.150000  0.400000  0.900000
Mo1298  Mo  0.175000  0.425000  0.925000
W1330  W  0.200000  0.400000  0.900000
Ta1285  Ta  0.225000  0.425000  0.925000
Mo1299  Mo  0.250000  0.400000  0.900000
Ta1286  Ta  0.275000  0.425000  0.925000
Nb1258  Nb  0.300000  0.400000  0.900000
W1331  W  0.325000  0.425000  0.925000
Nb1259  Nb  0.350000  0.400000  0.900000
Mo1300  Mo  0.375000  0.425000  0.925000
W1332  W  0.400000  0.400000  0.900000
Ta1287  Ta  0.425000  0.425000  0.925000
Mo1301  Mo  0.450000  0.400000  0.900000
Nb1260  Nb  0.475000  0.425000  0.925000
Ta1288  Ta  -0.000000  0.450000  0.900000
Nb1261  Nb  0.025000  0.475000  0.925000
Ta1289  Ta  0.050000  0.450000  0.900000
Nb1262  Nb  0.075000  0.475000  0.925000
Nb1263  Nb  0.100000  0.450000  0.900000
Ta1290  Ta  0.125000  0.475000  0.925000
Mo1302  Mo  0.150000  0.450000  0.900000
Nb1264  Nb  0.175000  0.475000  0.925000
W1333  W  0.200000  0.450000  0.900000
Mo1303  Mo  0.225000  0.475000  0.925000
Nb1265  Nb  0.250000  0.450000  0.900000
Mo1304  Mo  0.275000  0.475000  0.925000
Nb1266  Nb  0.300000  0.450000  0.900000
Mo1305  Mo  0.325000  0.475000  0.925000
Nb1267  Nb  0.350000  0.450000  0.900000
Nb1268  Nb  0.375000  0.475000  0.925000
Ta1291  Ta  0.400000  0.450000  0.900000
Mo1306  Mo  0.425000  0.475000  0.925000
Mo1307  Mo  0.450000  0.450000  0.900000
W1334  W  0.475000  0.475000  0.925000
Ta1292  Ta  -0.000000  0.500000  0.900000
W1335  W  0.025000  0.525000  0.925000
W1336  W  0.050000  0.500000  0.900000
Ta1293  Ta  0.075000  0.525000  0.925000
Ta1294  Ta  0.100000  0.500000  0.900000
W1337  W  0.125000  0.525000  0.925000
Nb1269  Nb  0.150000  0.500000  0.900000
Mo1308  Mo  0.175000  0.525000  0.925000
Ta1295  Ta  0.200000  0.500000  0.900000
Nb1270  Nb  0.225000  0.525000  0.925000
W1338  W  0.250000  0.500000  0.900000
Ta1296  Ta  0.275000  0.525000  0.925000
Mo1309  Mo  0.300000  0.500000  0.900000
W1339  W  0.325000  0.525000  0.925000
Mo1310  Mo  0.350000  0.500000  0.900000
Nb1271  Nb  0.375000  0.525000  0.925000
W1340  W  0.400000  0.500000  0.900000
Mo1311  Mo  0.425000  0.525000  0.925000
W1341  W  0.450000  0.500000  0.900000
W1342  W  0.475000  0.525000  0.925000
Ta1297  Ta  -0.000000  0.550000  0.900000
Mo1312  Mo  0.025000  0.575000  0.925000
W1343  W  0.050000  0.550000  0.900000
Mo1313  Mo  0.075000  0.575000  0.925000
Nb1272  Nb  0.100000  0.550000  0.900000
Ta1298  Ta  0.125000  0.575000  0.925000
Ta1299  Ta  0.150000  0.550000  0.900000
Nb1273  Nb  0.175000  0.575000  0.925000
Ta1300  Ta  0.200000  0.550000  0.900000
Mo1314  Mo  0.225000  0.575000  0.925000
Nb1274  Nb  0.250000  0.550000  0.900000
Mo1315  Mo  0.275000  0.575000  0.925000
Nb1275  Nb  0.300000  0.550000  0.900000
Mo1316  Mo  0.325000  0.575000  0.925000
W1344  W  0.350000  0.550000  0.900000
Mo1317  Mo  0.375000  0.575000  0.925000
W1345  W  0.400000  0.550000  0.900000
Mo1318  Mo  0.425000  0.575000  0.925000
Mo1319  Mo  0.450000  0.550000  0.900000
Mo1320  Mo  0.475000  0.575000  0.925000
W1346  W  -0.000000  0.600000  0.900000
Mo1321  Mo  0.025000  0.625000  0.925000
Mo1322  Mo  0.050000  0.600000  0.900000
W1347  W  0.075000  0.625000  0.925000
Nb1276  Nb  0.100000  0.600000  0.900000
Nb1277  Nb  0.125000  0.625000  0.925000
Mo1323  Mo  0.150000  0.600000  0.900000
Mo1324  Mo  0.175000  0.625000  0.925000
Ta1301  Ta  0.200000  0.600000  0.900000
Nb1278  Nb  0.225000  0.625000  0.925000
W1348  W  0.250000  0.600000  0.900000
W1349  W  0.275000  0.625000  0.925000
Mo1325  Mo  0.300000  0.600000  0.900000
Mo1326  Mo  0.325000  0.625000  0.925000
Mo1327  Mo  0.350000  0.600000  0.900000
Ta1302  Ta  0.375000  0.625000  0.925000
Nb1279  Nb  0.400000  0.600000  0.900000
Nb1280  Nb  0.425000  0.625000  0.925000
Nb1281  Nb  0.450000  0.600000  0.900000
Ta1303  Ta  0.475000  0.625000  0.925000
Nb1282  Nb  -0.000000  0.650000  0.900000
Nb1283  Nb  0.050000  0.650000  0.900000
Ta1304  Ta  0.100000  0.650000  0.900000
Nb1284  Nb  0.150000  0.650000  0.900000
Mo1328  Mo  0.200000  0.650000  0.900000
Nb1285  Nb  0.250000  0.650000  0.900000
Ta1305  Ta  0.300000  0.650000  0.900000
W1350  W  0.350000  0.650000  0.900000
Mo1329  Mo  0.400000  0.650000  0.900000
Mo1330  Mo  0.450000  0.650000  0.900000
Ta1306  Ta  -0.000000  0.350000  0.950000
Mo1331  Mo  0.025000  0.375000  0.975000
Nb1286  Nb  0.050000  0.350000  0.950000
Mo1332  Mo  0.075000  0.375000  0.975000
W1351  W  0.100000  0.350000  0.950000
Nb1287  Nb  0.125000  0.375000  0.975000
Nb1288  Nb  0.150000  0.350000  0.950000
W1352  W  0.175000  0.375000  0.975000
W1353  W  0.200000  0.350000  0.950000
Nb1289  Nb  0.225000  0.375000  0.975000
Mo1333  Mo  0.250000  0.350000  0.950000
Mo1334  Mo  0.275000  0.375000  0.975000
Ta1307  Ta  0.300000  0.350000  0.950000
W1354  W  0.325000  0.375000  0.975000
W1355  W  0.350000  0.350000  0.950000
Mo1335  Mo  0.375000  0.375000  0.975000
Mo1336  Mo  0.400000  0.350000  0.950000
Ta1308  Ta  0.425000  0.375000  0.975000
Mo1337  Mo  0.450000  0.350000  0.950000
Nb1290  Nb  0.475000  0.375000  0.975000
Ta1309  Ta  -0.000000  0.400000  0.950000
Nb1291  Nb  0.025000  0.425000  0.975000
Ta1310  Ta  0.050000  0.400000  0.950000
W1356  W  0.075000  0.425000  0.975000
Ta1311  Ta  0.100000  0.400000  0.950000
Mo1338  Mo  0.125000  0.425000  0.975000
W1357  W  0.150000  0.400000  0.950000
Ta1312  Ta  0.175000  0.425000  0.975000
Nb1292  Nb  0.200000  0.400000  0.950000
Mo1339  Mo  0.225000  0.425000  0.975000
W1358  W  0.250000  0.400000  0.950000
W1359  W  0.275000  0.425000  0.975000
W1360  W  0.300000  0.400000  0.950000
W1361  W  0.325000  0.425000  0.975000
Nb1293  Nb  0.350000  0.400000  0.950000
W1362  W  0.375000  0.425000  0.975000
Mo1340  Mo  0.400000  0.400000  0.950000
Ta1313  Ta  0.425000  0.425000  0.975000
Mo1341  Mo  0.450000  0.400000  0.950000
Ta1314  Ta  0.475000  0.425000  0.975000
Mo1342  Mo  -0.000000  0.450000  0.950000
W1363  W  0.025000  0.475000  0.975000
Nb1294  Nb  0.050000  0.450000  0.950000
Nb1295  Nb  0.075000  0.475000  0.975000
Nb1296  Nb  0.100000  0.450000  0.950000
Mo1343  Mo  0.125000  0.475000  0.975000
Ta1315  Ta  0.150000  0.450000  0.950000
Nb1297  Nb  0.175000  0.475000  0.975000
W1364  W  0.200000  0.450000  0.950000
Ta1316  Ta  0.225000  0.475000  0.975000
Nb1298  Nb  0.250000  0.450000  0.950000
Ta1317  Ta  0.275000  0.475000  0.975000
Ta1318  Ta  0.300000  0.450000  0.950000
W1365  W  0.325000  0.475000  0.975000
Ta1319  Ta  0.350000  0.450000  0.950000
Mo1344  Mo  0.375000  0.475000  0.975000
Ta1320  Ta  0.400000  0.450000  0.950000
Ta1321  Ta  0.425000  0.475000  0.975000
W1366  W  0.450000  0.450000  0.950000
Nb1299  Nb  0.475000  0.475000  0.975000
W1367  W  -0.000000  0.500000  0.950000
Nb1300  Nb  0.025000  0.525000  0.975000
Nb1301  Nb  0.050000  0.500000  0.950000
Mo1345  Mo  0.075000  0.525000  0.975000
W1368  W  0.100000  0.500000  0.950000
Mo1346  Mo  0.125000  0.525000  0.975000
W1369  W  0.150000  0.500000  0.950000
W1370  W  0.175000  0.525000  0.975000
Mo1347  Mo  0.200000  0.500000  0.950000
W1371  W  0.225000  0.525000  0.975000
Ta1322  Ta  0.250000  0.500000  0.950000
Mo1348  Mo  0.275000  0.525000  0.975000
W1372  W  0.300000  0.500000  0.950000
Mo1349  Mo  0.325000  0.525000  0.975000
W1373  W  0.350000  0.500000  0.950000
Nb1302  Nb  0.375000  0.525000  0.975000
Ta1323  Ta  0.400000  0.500000  0.950000
Mo1350  Mo  0.425000  0.525000  0.975000
Mo1351  Mo  0.450000  0.500000  0.950000
Nb1303  Nb  0.475000  0.525000  0.975000
Nb1304  Nb  -0.000000  0.550000  0.950000
W1374  W  0.025000  0.575000  0.975000
Mo1352  Mo  0.050000  0.550000  0.950000
Ta1324  Ta  0.075000  0.575000  0.975000
Ta1325  Ta  0.100000  0.550000  0.950000
Mo1353  Mo  0.125000  0.575000  0.975000
W1375  W  0.150000  0.550000  0.950000
Mo1354  Mo  0.175000  0.575000  0.975000
Nb1305  Nb  0.200000  0.550000  0.950000
Ta1326  Ta  0.225000  0.575000  0.975000
Nb1306  Nb  0.250000  0.550000  0.950000
W1376  W  0.275000  0.575000  0.975000
Mo1355  Mo  0.300000  0.550000  0.950000
Mo1356  Mo  0.325000  0.575000  0.975000
Ta1327  Ta  0.350000  0.550000  0.950000
Mo1357  Mo  0.375000  0.575000  0.975000
Mo1358  Mo  0.400000  0.550000  0.950000
Ta1328  Ta  0.425000  0.575000  0.975000
W1377  W  0.450000  0.550000  0.950000
Mo1359  Mo  0.475000  0.575000  0.975000
Nb1307  Nb  -0.000000  0.600000  0.950000
Ta1329  Ta  0.025000  0.625000  0.975000
Mo1360  Mo  0.050000  0.600000  0.950000
Mo1361  Mo  0.075000  0.625000  0.975000
Nb1308  Nb  0.100000  0.600000  0.950000
Mo1362  Mo  0.125000  0.625000  0.975000
W1378  W  0.150000  0.600000  0.950000
Ta1330  Ta  0.175000  0.625000  0.975000
Nb1309  Nb  0.200000  0.600000  0.950000
W1379  W  0.225000  0.625000  0.975000
Ta1331  Ta  0.250000  0.600000  0.950000
Nb1310  Nb  0.275000  0.625000  0.975000
Nb1311  Nb  0.300000  0.600000  0.950000
Ta1332  Ta  0.325000  0.625000  0.975000
W1380  W  0.350000  0.600000  0.950000
Nb1312  Nb  0.375000  0.625000  0.975000
Nb1313  Nb  0.400000  0.600000  0.950000
W1381  W  0.425000  0.625000  0.975000
W1382  W  0.450000  0.600000  0.950000
W1383  W  0.475000  0.625000  0.975000
Ta1333  Ta  -0.000000  0.650000  0.950000
Mo1363  Mo  0.050000  0.650000  0.950000
W1384  W  0.100000  0.650000  0.950000
Mo1364  Mo  0.150000  0.650000  0.950000
Nb1314  Nb  0.200000  0.650000  0.950000
Ta1334  Ta  0.250000  0.650000  0.950000
Nb1315  Nb  0.300000  0.650000  0.950000
Nb1316  Nb  0.350000  0.650000  0.950000
Nb1317  Nb  0.400000  0.650000  0.950000
W1385  W  0.450000  0.650000  0.950000
Nb1318  Nb  0.025000  0.675000  0.025000
Mo1365  Mo  0.075000  0.675000  0.025000
W1386  W  0.125000  0.675000  0.025000
Ta1335  Ta  0.175000  0.675000  0.025000
Ta1336  Ta  0.225000  0.675000  0.025000
W1387  W  0.275000  0.675000  0.025000
Nb1319  Nb  0.325000  0.675000  0.025000
Nb1320  Nb  0.375000  0.675000  0.025000
Ta1337  Ta  0.425000  0.675000  0.025000
Mo1366  Mo  0.475000  0.675000  0.025000
Mo1367  Mo  -0.000000  0.700000  0.000000
W1388  W  0.025000  0.725000  0.025000
Mo1368  Mo  0.050000  0.700000  0.000000
Nb1321  Nb  0.075000  0.725000  0.025000
Mo1369  Mo  0.100000  0.700000  0.000000
Mo1370  Mo  0.125000  0.725000  0.025000
W1389  W  0.150000  0.700000  0.000000
Nb1322  Nb  0.175000  0.725000  0.025000
Nb1323  Nb  0.200000  0.700000  0.000000
Ta1338  Ta  0.225000  0.725000  0.025000
W1390  W  0.250000  0.700000  0.000000
W1391  W  0.275000  0.725000  0.025000
W1392  W  0.300000  0.700000  0.000000
Ta1339  Ta  0.325000  0.725000  0.025000
Ta1340  Ta  0.350000  0.700000  0.000000
Ta1341  Ta  0.375000  0.725000  0.025000
Mo1371  Mo  0.400000  0.700000  0.000000
Nb1324  Nb  0.425000  0.725000  0.025000
W1393  W  0.450000  0.700000  0.000000
Ta1342  Ta  0.475000  0.725000  0.025000
Ta1343  Ta  -0.000000  0.750000  0.000000
W1394  W  0.025000  0.775000  0.025000
W1395  W  0.050000  0.750000  0.000000
Mo1372  Mo  0.075000  0.775000  0.025000
Ta1344  Ta  0.100000  0.750000  0.000000
Nb1325  Nb  0.125000  0.775000  0.025000
Mo1373  Mo  0.150000  0.750000  0.000000
Nb1326  Nb  0.175000  0.775000  0.025000
Nb1327  Nb  0.200000  0.750000  0.000000
Ta1345  Ta  0.225000  0.775000  0.025000
Mo1374  Mo  0.250000  0.750000  0.000000
Ta1346  Ta  0.275000  0.775000  0.025000
Ta1347  Ta  0.300000  0.750000  0.000000
Nb1328  Nb  0.325000  0.775000  0.025000
W1396  W  0.350000  0.750000  0.000000
Nb1329  Nb  0.375000  0.775000  0.025000
Nb1330  Nb  0.400000  0.750000  0.000000
W1397  W  0.425000  0.775000  0.025000
Ta1348  Ta  0.450000  0.750000  0.000000
Nb1331  Nb  0.475000  0.775000  0.025000
Ta1349  Ta  -0.000000  0.800000  0.000000
Nb1332  Nb  0.025000  0.825000  0.025000
W1398  W  0.050000  0.800000  0.000000
Nb1333  Nb  0.075000  0.825000  0.025000
Mo1375  Mo  0.100000  0.800000  0.000000
Ta1350  Ta  0.125000  0.825000  0.025000
Mo1376  Mo  0.150000  0.800000  0.000000
Ta1351  Ta  0.175000  0.825000  0.025000
Mo1377  Mo  0.200000  0.800000  0.000000
W1399  W  0.225000  0.825000  0.025000
Mo1378  Mo  0.250000  0.800000  0.000000
W1400  W  0.275000  0.825000  0.025000
Ta1352  Ta  0.300000  0.800000  0.000000
Mo1379  Mo  0.325000  0.825000  0.025000
Nb1334  Nb  0.350000  0.800000  0.000000
Nb1335  Nb  0.375000  0.825000  0.025000
Ta1353  Ta  0.400000  0.800000  0.000000
Nb1336  Nb  0.425000  0.825000  0.025000
Mo1380  Mo  0.450000  0.800000  0.000000
W1401  W  0.475000  0.825000  0.025000
Nb1337  Nb  -0.000000  0.850000  0.000000
W1402  W  0.025000  0.875000  0.025000
Nb1338  Nb  0.050000  0.850000  0.000000
Ta1354  Ta  0.075000  0.875000  0.025000
W1403  W  0.100000  0.850000  0.000000
Mo1381  Mo  0.125000  0.875000  0.025000
Mo1382  Mo  0.150000  0.850000  0.000000
Nb1339  Nb  0.175000  0.875000  0.025000
W1404  W  0.200000  0.850000  0.000000
Mo1383  Mo  0.225000  0.875000  0.025000
Mo1384  Mo  0.250000  0.850000  0.000000
Nb1340  Nb  0.275000  0.875000  0.025000
Nb1341  Nb  0.300000  0.850000  0.000000
Mo1385  Mo  0.325000  0.875000  0.025000
Ta1355  Ta  0.350000  0.850000  0.000000
Nb1342  Nb  0.375000  0.875000  0.025000
W1405  W  0.400000  0.850000  0.000000
Mo1386  Mo  0.425000  0.875000  0.025000
Mo1387  Mo  0.450000  0.850000  0.000000
Nb1343  Nb  0.475000  0.875000  0.025000
Mo1388  Mo  -0.000000  0.900000  0.000000
W1406  W  0.025000  0.925000  0.025000
Ta1356  Ta  0.050000  0.900000  0.000000
Nb1344  Nb  0.075000  0.925000  0.025000
Mo1389  Mo  0.100000  0.900000  0.000000
Mo1390  Mo  0.125000  0.925000  0.025000
Nb1345  Nb  0.150000  0.900000  0.000000
Nb1346  Nb  0.175000  0.925000  0.025000
W1407  W  0.200000  0.900000  0.000000
Nb1347  Nb  0.225000  0.925000  0.025000
Ta1357  Ta  0.250000  0.900000  0.000000
Mo1391  Mo  0.275000  0.925000  0.025000
Mo1392  Mo  0.300000  0.900000  0.000000
Nb1348  Nb  0.325000  0.925000  0.025000
Ta1358  Ta  0.350000  0.900000  0.000000
Mo1393  Mo  0.375000  0.925000  0.025000
Mo1394  Mo  0.400000  0.900000  0.000000
W1408  W  0.425000  0.925000  0.025000
Mo1395  Mo  0.450000  0.900000  0.000000
Nb1349  Nb  0.475000  0.925000  0.025000
W1409  W  -0.000000  0.950000  0.000000
Ta1359  Ta  0.025000  0.975000  0.025000
Mo1396  Mo  0.050000  0.950000  0.000000
W1410  W  0.075000  0.975000  0.025000
Mo1397  Mo  0.100000  0.950000  0.000000
W1411  W  0.125000  0.975000  0.025000
W1412  W  0.150000  0.950000  0.000000
Nb1350  Nb  0.175000  0.975000  0.025000
W1413  W  0.200000  0.950000  0.000000
W1414  W  0.225000  0.975000  0.025000
Mo1398  Mo  0.250000  0.950000  0.000000
W1415  W  0.275000  0.975000  0.025000
Ta1360  Ta  0.300000  0.950000  0.000000
Mo1399  Mo  0.325000  0.975000  0.025000
Mo1400  Mo  0.350000  0.950000  0.000000
Mo1401  Mo  0.375000  0.975000  0.025000
Ta1361  Ta  0.400000  0.950000  0.000000
Ta1362  Ta  0.425000  0.975000  0.025000
Mo1402  Mo  0.450000  0.950000  0.000000
W1416  W  0.475000  0.975000  0.025000
Ta1363  Ta  0.025000  0.675000  0.075000
Nb1351  Nb  0.075000  0.675000  0.075000
W1417  W  0.125000  0.675000  0.075000
Mo1403  Mo  0.175000  0.675000  0.075000
Ta1364  Ta  0.225000  0.675000  0.075000
W1418  W  0.275000  0.675000  0.075000
Mo1404  Mo  0.325000  0.675000  0.075000
Nb1352  Nb  0.375000  0.675000  0.075000
Nb1353  Nb  0.425000  0.675000  0.075000
Mo1405  Mo  0.475000  0.675000  0.075000
Mo1406  Mo  -0.000000  0.700000  0.050000
W1419  W  0.025000  0.725000  0.075000
Nb1354  Nb  0.050000  0.700000  0.050000
W1420  W  0.075000  0.725000  0.075000
Mo1407  Mo  0.100000  0.700000  0.050000
Nb1355  Nb  0.125000  0.725000  0.075000
Ta1365  Ta  0.150000  0.700000  0.050000
Ta1366  Ta  0.175000  0.725000  0.075000
Nb1356  Nb  0.200000  0.700000  0.050000
Ta1367  Ta  0.225000  0.725000  0.075000
W1421  W  0.250000  0.700000  0.050000
W1422  W  0.275000  0.725000  0.075000
Nb1357  Nb  0.300000  0.700000  0.050000
Nb1358  Nb  0.325000  0.725000  0.075000
W1423  W  0.350000  0.700000  0.050000
Mo1408  Mo  0.375000  0.725000  0.075000
Mo1409  Mo  0.400000  0.700000  0.050000
Ta1368  Ta  0.425000  0.725000  0.075000
W1424  W  0.450000  0.700000  0.050000
Ta1369  Ta  0.475000  0.725000  0.075000
Ta1370  Ta  -0.000000  0.750000  0.050000
Nb1359  Nb  0.025000  0.775000  0.075000
Ta1371  Ta  0.050000  0.750000  0.050000
Ta1372  Ta  0.075000  0.775000  0.075000
Ta1373  Ta  0.100000  0.750000  0.050000
Mo1410  Mo  0.125000  0.775000  0.075000
Mo1411  Mo  0.150000  0.750000  0.050000
W1425  W  0.175000  0.775000  0.075000
Nb1360  Nb  0.200000  0.750000  0.050000
Nb1361  Nb  0.225000  0.775000  0.075000
Ta1374  Ta  0.250000  0.750000  0.050000
Nb1362  Nb  0.275000  0.775000  0.075000
Nb1363  Nb  0.300000  0.750000  0.050000
Ta1375  Ta  0.325000  0.775000  0.075000
Ta1376  Ta  0.350000  0.750000  0.050000
W1426  W  0.375000  0.775000  0.075000
Ta1377  Ta  0.400000  0.750000  0.050000
Nb1364  Nb  0.425000  0.775000  0.075000
W1427  W  0.450000  0.750000  0.050000
Mo1412  Mo  0.475000  0.775000  0.075000
Ta1378  Ta  -0.000000  0.800000  0.050000
Ta1379  Ta  0.025000  0.825000  0.075000
W1428  W  0.050000  0.800000  0.050000
Nb1365  Nb  0.075000  0.825000  0.075000
W1429  W  0.100000  0.800000  0.050000
Nb1366  Nb  0.125000  0.825000  0.075000
Ta1380  Ta  0.150000  0.800000  0.050000
Ta1381  Ta  0.175000  0.825000  0.075000
Nb1367  Nb  0.200000  0.800000  0.050000
Mo1413  Mo  0.225000  0.825000  0.075000
Nb1368  Nb  0.250000  0.800000  0.050000
Mo1414  Mo  0.275000  0.825000  0.075000
W1430  W  0.300000  0.800000  0.050000
W1431  W  0.325000  0.825000  0.075000
Ta1382  Ta  0.350000  0.800000  0.050000
Nb1369  Nb  0.375000  0.825000  0.075000
Nb1370  Nb  0.400000  0.800000  0.050000
Ta1383  Ta  0.425000  0.825000  0.075000
Mo1415  Mo  0.450000  0.800000  0.050000
Mo1416  Mo  0.475000  0.825000  0.075000
Ta1384  Ta  -0.000000  0.850000  0.050000
Nb1371  Nb  0.025000  0.875000  0.075000
Nb1372  Nb  0.050000  0.850000  0.050000
W1432  W  0.075000  0.875000  0.075000
Ta1385  Ta  0.100000  0.850000  0.050000
Mo1417  Mo  0.125000  0.875000  0.075000
Mo1418  Mo  0.150000  0.850000  0.050000
Ta1386  Ta  0.175000  0.875000  0.075000
W1433  W  0.200000  0.850000  0.050000
Ta1387  Ta  0.225000  0.875000  0.075000
W1434  W  0.250000  0.850000  0.050000
Mo1419  Mo  0.275000  0.875000  0.075000
Mo1420  Mo  0.300000  0.850000  0.050000
Ta1388  Ta  0.325000  0.875000  0.075000
W1435  W  0.350000  0.850000  0.050000
W1436  W  0.375000  0.875000  0.075000
W1437  W  0.400000  0.850000  0.050000
Nb1373  Nb  0.425000  0.875000  0.075000
Ta1389  Ta  0.450000  0.850000  0.050000
W1438  W  0.475000  0.875000  0.075000
Mo1421  Mo  -0.000000  0.900000  0.050000
W1439  W  0.025000  0.925000  0.075000
Nb1374  Nb  0.050000  0.900000  0.050000
Mo1422  Mo  0.075000  0.925000  0.075000
Ta1390  Ta  0.100000  0.900000  0.050000
Ta1391  Ta  0.125000  0.925000  0.075000
W1440  W  0.150000  0.900000  0.050000
Ta1392  Ta  0.175000  0.925000  0.075000
W1441  W  0.200000  0.900000  0.050000
Ta1393  Ta  0.225000  0.925000  0.075000
Ta1394  Ta  0.250000  0.900000  0.050000
Nb1375  Nb  0.275000  0.925000  0.075000
Ta1395  Ta  0.300000  0.900000  0.050000
Ta1396  Ta  0.325000  0.925000  0.075000
Ta1397  Ta  0.350000  0.900000  0.050000
W1442  W  0.375000  0.925000  0.075000
Ta1398  Ta  0.400000  0.900000  0.050000
W1443  W  0.425000  0.925000  0.075000
W1444  W  0.450000  0.900000  0.050000
Nb1376  Nb  0.475000  0.925000  0.075000
Ta1399  Ta  -0.000000  0.950000  0.050000
Mo1423  Mo  0.025000  0.975000  0.075000
W1445  W  0.050000  0.950000  0.050000
W1446  W  0.075000  0.975000  0.075000
W1447  W  0.100000  0.950000  0.050000
W1448  W  0.125000  0.975000  0.075000
Mo1424  Mo  0.150000  0.950000  0.050000
Ta1400  Ta  0.175000  0.975000  0.075000
W1449  W  0.200000  0.950000  0.050000
W1450  W  0.225000  0.975000  0.075000
W1451  W  0.250000  0.950000  0.050000
Mo1425  Mo  0.275000  0.975000  0.075000
Mo1426  Mo  0.300000  0.950000  0.050000
W1452  W  0.325000  0.975000  0.075000
W1453  W  0.350000  0.950000  0.050000
Ta1401  Ta  0.375000  0.975000  0.075000
Mo1427  Mo  0.400000  0.950000  0.050000
Mo1428  Mo  0.425000  0.975000  0.075000
Nb1377  Nb  0.450000  0.950000  0.050000
Nb1378  Nb  0.475000  0.975000  0.075000
Ta1402  Ta  0.025000  0.675000  0.125000
Ta1403  Ta  0.075000  0.675000  0.125000
W1454  W  0.125000  0.675000  0.125000
Nb1379  Nb  0.175000  0.675000  0.125000
W1455  W  0.225000  0.675000  0.125000
Nb1380  Nb  0.275000  0.675000  0.125000
Mo1429  Mo  0.325000  0.675000  0.125000
Ta1404  Ta  0.375000  0.675000  0.125000
Ta1405  Ta  0.425000  0.675000  0.125000
Nb1381  Nb  0.475000  0.675000  0.125000
Ta1406  Ta  -0.000000  0.700000  0.100000
Ta1407  Ta  0.025000  0.725000  0.125000
W1456  W  0.050000  0.700000  0.100000
Nb1382  Nb  0.075000  0.725000  0.125000
Nb1383  Nb  0.100000  0.700000  0.100000
W1457  W  0.125000  0.725000  0.125000
Ta1408  Ta  0.150000  0.700000  0.100000
Mo1430  Mo  0.175000  0.725000  0.125000
Mo1431  Mo  0.200000  0.700000  0.100000
W1458  W  0.225000  0.725000  0.125000
Ta1409  Ta  0.250000  0.700000  0.100000
Ta1410  Ta  0.275000  0.725000  0.125000
W1459  W  0.300000  0.700000  0.100000
Nb1384  Nb  0.325000  0.725000  0.125000
W1460  W  0.350000  0.700000  0.100000
Ta1411  Ta  0.375000  0.725000  0.125000
Mo1432  Mo  0.400000  0.700000  0.100000
W1461  W  0.425000  0.725000  0.125000
Ta1412  Ta  0.450000  0.700000  0.100000
Nb1385  Nb  0.475000  0.725000  0.125000
W1462  W  -0.000000  0.750000  0.100000
Mo1433  Mo  0.025000  0.775000  0.125000
Mo1434  Mo  0.050000  0.750000  0.100000
Nb1386  Nb  0.075000  0.775000  0.125000
Mo1435  Mo  0.100000  0.750000  0.100000
Nb1387  Nb  0.125000  0.775000  0.125000
Nb1388  Nb  0.150000  0.750000  0.100000
Mo1436  Mo  0.175000  0.775000  0.125000
Mo1437  Mo  0.200000  0.750000  0.100000
Nb1389  Nb  0.225000  0.775000  0.125000
W1463  W  0.250000  0.750000  0.100000
W1464  W  0.275000  0.775000  0.125000
Mo1438  Mo  0.300000  0.750000  0.100000
Mo1439  Mo  0.325000  0.775000  0.125000
W1465  W  0.350000  0.750000  0.100000
W1466  W  0.375000  0.775000  0.125000
Ta1413  Ta  0.400000  0.750000  0.100000
Ta1414  Ta  0.425000  0.775000  0.125000
W1467  W  0.450000  0.750000  0.100000
Mo1440  Mo  0.475000  0.775000  0.125000
W1468  W  -0.000000  0.800000  0.100000
Nb1390  Nb  0.025000  0.825000  0.125000
Mo1441  Mo  0.050000  0.800000  0.100000
Nb1391  Nb  0.075000  0.825000  0.125000
Ta1415  Ta  0.100000  0.800000  0.100000
Mo1442  Mo  0.125000  0.825000  0.125000
Ta1416  Ta  0.150000  0.800000  0.100000
Ta1417  Ta  0.175000  0.825000  0.125000
Nb1392  Nb  0.200000  0.800000  0.100000
Ta1418  Ta  0.225000  0.825000  0.125000
Mo1443  Mo  0.250000  0.800000  0.100000
Mo1444  Mo  0.275000  0.825000  0.125000
Nb1393  Nb  0.300000  0.800000  0.100000
Nb1394  Nb  0.325000  0.825000  0.125000
Mo1445  Mo  0.350000  0.800000  0.100000
Mo1446  Mo  0.375000  0.825000  0.125000
Nb1395  Nb  0.400000  0.800000  0.100000
Nb1396  Nb  0.425000  0.825000  0.125000
Nb1397  Nb  0.450000  0.800000  0.100000
W1469  W  0.475000  0.825000  0.125000
W1470  W  -0.000000  0.850000  0.100000
Nb1398  Nb  0.025000  0.875000  0.125000
W1471  W  0.050000  0.850000  0.100000
Ta1419  Ta  0.075000  0.875000  0.125000
Ta1420  Ta  0.100000  0.850000  0.100000
Ta1421  Ta  0.125000  0.875000  0.125000
Nb1399  Nb  0.150000  0.850000  0.100000
Mo1447  Mo  0.175000  0.875000  0.125000
Nb1400  Nb  0.200000  0.850000  0.100000
Mo1448  Mo  0.225000  0.875000  0.125000
Nb1401  Nb  0.250000  0.850000  0.100000
Mo1449  Mo  0.275000  0.875000  0.125000
Mo1450  Mo  0.300000  0.850000  0.100000
Nb1402  Nb  0.325000  0.875000  0.125000
Mo1451  Mo  0.350000  0.850000  0.100000
Mo1452  Mo  0.375000  0.875000  0.125000
Mo1453  Mo  0.400000  0.850000  0.100000
Nb1403  Nb  0.425000  0.875000  0.125000
Nb1404  Nb  0.450000  0.850000  0.100000
Nb1405  Nb  0.475000  0.875000  0.125000
W1472  W  -0.000000  0.900000  0.100000
Mo1454  Mo  0.025000  0.925000  0.125000
Ta1422  Ta  0.050000  0.900000  0.100000
Mo1455  Mo  0.075000  0.925000  0.125000
Nb1406  Nb  0.100000  0.900000  0.100000
Nb1407  Nb  0.125000  0.925000  0.125000
Ta1423  Ta  0.150000  0.900000  0.100000
W1473  W  0.175000  0.925000  0.125000
Ta1424  Ta  0.200000  0.900000  0.100000
W1474  W  0.225000  0.925000  0.125000
Nb1408  Nb  0.250000  0.900000  0.100000
Mo1456  Mo  0.275000  0.925000  0.125000
Nb1409  Nb  0.300000  0.900000  0.100000
Ta1425  Ta  0.325000  0.925000  0.125000
Mo1457  Mo  0.350000  0.900000  0.100000
W1475  W  0.375000  0.925000  0.125000
Mo1458  Mo  0.400000  0.900000  0.100000
Nb1410  Nb  0.425000  0.925000  0.125000
Ta1426  Ta  0.450000  0.900000  0.100000
Nb1411  Nb  0.475000  0.925000  0.125000
W1476  W  -0.000000  0.950000  0.100000
Mo1459  Mo  0.025000  0.975000  0.125000
Nb1412  Nb  0.050000  0.950000  0.100000
Mo1460  Mo  0.075000  0.975000  0.125000
Nb1413  Nb  0.100000  0.950000  0.100000
Mo1461  Mo  0.125000  0.975000  0.125000
Mo1462  Mo  0.150000  0.950000  0.100000
Nb1414  Nb  0.175000  0.975000  0.125000
Ta1427  Ta  0.200000  0.950000  0.100000
Nb1415  Nb  0.225000  0.975000  0.125000
W1477  W  0.250000  0.950000  0.100000
Mo1463  Mo  0.275000  0.975000  0.125000
W1478  W  0.300000  0.950000  0.100000
Ta1428  Ta  0.325000  0.975000  0.125000
W1479  W  0.350000  0.950000  0.100000
W1480  W  0.375000  0.975000  0.125000
Ta1429  Ta  0.400000  0.950000  0.100000
Mo1464  Mo  0.425000  0.975000  0.125000
Mo1465  Mo  0.450000  0.950000  0.100000
Ta1430  Ta  0.475000  0.975000  0.125000
Nb1416  Nb  0.025000  0.675000  0.175000
Nb1417  Nb  0.075000  0.675000  0.175000
Mo1466  Mo  0.125000  0.675000  0.175000
Mo1467  Mo  0.175000  0.675000  0.175000
Nb1418  Nb  0.225000  0.675000  0.175000
Nb1419  Nb  0.275000  0.675000  0.175000
Ta1431  Ta  0.325000  0.675000  0.175000
W1481  W  0.375000  0.675000  0.175000
W1482  W  0.425000  0.675000  0.175000
Ta1432  Ta  0.475000  0.675000  0.175000
Nb1420  Nb  -0.000000  0.700000  0.150000
Mo1468  Mo  0.025000  0.725000  0.175000
Mo1469  Mo  0.050000  0.700000  0.150000
Nb1421  Nb  0.075000  0.725000  0.175000
Nb1422  Nb  0.100000  0.700000  0.150000
Ta1433  Ta  0.125000  0.725000  0.175000
Mo1470  Mo  0.150000  0.700000  0.150000
Nb1423  Nb  0.175000  0.725000  0.175000
Ta1434  Ta  0.200000  0.700000  0.150000
Ta1435  Ta  0.225000  0.725000  0.175000
W1483  W  0.250000  0.700000  0.150000
Mo1471  Mo  0.275000  0.725000  0.175000
W1484  W  0.300000  0.700000  0.150000
Nb1424  Nb  0.325000  0.725000  0.175000
Ta1436  Ta  0.350000  0.700000  0.150000
Nb1425  Nb  0.375000  0.725000  0.175000
Ta1437  Ta  0.400000  0.700000  0.150000
W1485  W  0.425000  0.725000  0.175000
Ta1438  Ta  0.450000  0.700000  0.150000
Mo1472  Mo  0.475000  0.725000  0.175000
W1486  W  -0.000000  0.750000  0.150000
Mo1473  Mo  0.025000  0.775000  0.175000
W1487  W  0.050000  0.750000  0.150000
W1488  W  0.075000  0.775000  0.175000
W1489  W  0.100000  0.750000  0.150000
Mo1474  Mo  0.125000  0.775000  0.175000
W1490  W  0.150000  0.750000  0.150000
Ta1439  Ta  0.175000  0.775000  0.175000
W1491  W  0.200000  0.750000  0.150000
W1492  W  0.225000  0.775000  0.175000
Nb1426  Nb  0.250000  0.750000  0.150000
Ta1440  Ta  0.275000  0.775000  0.175000
Mo1475  Mo  0.300000  0.750000  0.150000
Ta1441  Ta  0.325000  0.775000  0.175000
Mo1476  Mo  0.350000  0.750000  0.150000
W1493  W  0.375000  0.775000  0.175000
Ta1442  Ta  0.400000  0.750000  0.150000
W1494  W  0.425000  0.775000  0.175000
Nb1427  Nb  0.450000  0.750000  0.150000
W1495  W  0.475000  0.775000  0.175000
Nb1428  Nb  -0.000000  0.800000  0.150000
Mo1477  Mo  0.025000  0.825000  0.175000
W1496  W  0.050000  0.800000  0.150000
Ta1443  Ta  0.075000  0.825000  0.175000
Mo1478  Mo  0.100000  0.800000  0.150000
Ta1444  Ta  0.125000  0.825000  0.175000
Ta1445  Ta  0.150000  0.800000  0.150000
Nb1429  Nb  0.175000  0.825000  0.175000
Ta1446  Ta  0.200000  0.800000  0.150000
Mo1479  Mo  0.225000  0.825000  0.175000
Nb1430  Nb  0.250000  0.800000  0.150000
W1497  W  0.275000  0.825000  0.175000
Nb1431  Nb  0.300000  0.800000  0.150000
Mo1480  Mo  0.325000  0.825000  0.175000
W1498  W  0.350000  0.800000  0.150000
Mo1481  Mo  0.375000  0.825000  0.175000
Mo1482  Mo  0.400000  0.800000  0.150000
Ta1447  Ta  0.425000  0.825000  0.175000
Mo1483  Mo  0.450000  0.800000  0.150000
Nb1432  Nb  0.475000  0.825000  0.175000
Ta1448  Ta  -0.000000  0.850000  0.150000
Mo1484  Mo  0.025000  0.875000  0.175000
Mo1485  Mo  0.050000  0.850000  0.150000
Mo1486  Mo  0.075000  0.875000  0.175000
Nb1433  Nb  0.100000  0.850000  0.150000
Nb1434  Nb  0.125000  0.875000  0.175000
Nb1435  Nb  0.150000  0.850000  0.150000
W1499  W  0.175000  0.875000  0.175000
Nb1436  Nb  0.200000  0.850000  0.150000
Nb1437  Nb  0.225000  0.875000  0.175000
Nb1438  Nb  0.250000  0.850000  0.150000
Ta1449  Ta  0.275000  0.875000  0.175000
Mo1487  Mo  0.300000  0.850000  0.150000
W1500  W  0.325000  0.875000  0.175000
Nb1439  Nb  0.350000  0.850000  0.150000
W1501  W  0.375000  0.875000  0.175000
Ta1450  Ta  0.400000  0.850000  0.150000
Mo1488  Mo  0.425000  0.875000  0.175000
Mo1489  Mo  0.450000  0.850000  0.150000
W1502  W  0.475000  0.875000  0.175000
W1503  W  -0.000000  0.900000  0.150000
W1504  W  0.025000  0.925000  0.175000
Nb1440  Nb  0.050000  0.900000  0.150000
W1505  W  0.075000  0.925000  0.175000
Nb1441  Nb  0.100000  0.900000  0.150000
Nb1442  Nb  0.125000  0.925000  0.175000
W1506  W  0.150000  0.900000  0.150000
Ta1451  Ta  0.175000  0.925000  0.175000
Mo1490  Mo  0.200000  0.900000  0.150000
Mo1491  Mo  0.225000  0.925000  0.175000
W1507  W  0.250000  0.900000  0.150000
Ta1452  Ta  0.275000  0.925000  0.175000
Ta1453  Ta  0.300000  0.900000  0.150000
Ta1454  Ta  0.325000  0.925000  0.175000
W1508  W  0.350000  0.900000  0.150000
W1509  W  0.375000  0.925000  0.175000
W1510  W  0.400000  0.900000  0.150000
W1511  W  0.425000  0.925000  0.175000
W1512  W  0.450000  0.900000  0.150000
W1513  W  0.475000  0.925000  0.175000
Ta1455  Ta  -0.000000  0.950000  0.150000
Mo1492  Mo  0.025000  0.975000  0.175000
Ta1456  Ta  0.050000  0.950000  0.150000
W1514  W  0.075000  0.975000  0.175000
Nb1443  Nb  0.100000  0.950000  0.150000
Ta1457  Ta  0.125000  0.975000  0.175000
W1515  W  0.150000  0.950000  0.150000
Ta1458  Ta  0.175000  0.975000  0.175000
Ta1459  Ta  0.200000  0.950000  0.150000
Ta1460  Ta  0.225000  0.975000  0.175000
Mo1493  Mo  0.250000  0.950000  0.150000
Ta1461  Ta  0.275000  0.975000  0.175000
Mo1494  Mo  0.300000  0.950000  0.150000
Ta1462  Ta  0.325000  0.975000  0.175000
Ta1463  Ta  0.350000  0.950000  0.150000
Mo1495  Mo  0.375000  0.975000  0.175000
Mo1496  Mo  0.400000  0.950000  0.150000
W1516  W  0.425000  0.975000  0.175000
Nb1444  Nb  0.450000  0.950000  0.150000
Ta1464  Ta  0.475000  0.975000  0.175000
Ta1465  Ta  0.025000  0.675000  0.225000
Mo1497  Mo  0.075000  0.675000  0.225000
Nb1445  Nb  0.125000  0.675000  0.225000
Nb1446  Nb  0.175000  0.675000  0.225000
W1517  W  0.225000  0.675000  0.225000
Nb1447  Nb  0.275000  0.675000  0.225000
Mo1498  Mo  0.325000  0.675000  0.225000
Nb1448  Nb  0.375000  0.675000  0.225000
W1518  W  0.425000  0.675000  0.225000
Ta1466  Ta  0.475000  0.675000  0.225000
Mo1499  Mo  -0.000000  0.700000  0.200000
Mo1500  Mo  0.025000  0.725000  0.225000
Nb1449  Nb  0.050000  0.700000  0.200000
Ta1467  Ta  0.075000  0.725000  0.225000
Nb1450  Nb  0.100000  0.700000  0.200000
Mo1501  Mo  0.125000  0.725000  0.225000
Ta1468  Ta  0.150000  0.700000  0.200000
Mo1502  Mo  0.175000  0.725000  0.225000
Mo1503  Mo  0.200000  0.700000  0.200000
Nb1451  Nb  0.225000  0.725000  0.225000
W1519  W  0.250000  0.700000  0.200000
Mo1504  Mo  0.275000  0.725000  0.225000
Mo1505  Mo  0.300000  0.700000  0.200000
W1520  W  0.325000  0.725000  0.225000
Mo1506  Mo  0.350000  0.700000  0.200000
W1521  W  0.375000  0.725000  0.225000
Nb1452  Nb  0.400000  0.700000  0.200000
Nb1453  Nb  0.425000  0.725000  0.225000
W1522  W  0.450000  0.700000  0.200000
Nb1454  Nb  0.475000  0.725000  0.225000
W1523  W  -0.000000  0.750000  0.200000
Nb1455  Nb  0.025000  0.775000  0.225000
Ta1469  Ta  0.050000  0.750000  0.200000
Mo1507  Mo  0.075000  0.775000  0.225000
Mo1508  Mo  0.100000  0.750000  0.200000
Nb1456  Nb  0.125000  0.775000  0.225000
Nb1457  Nb  0.150000  0.750000  0.200000
Ta1470  Ta  0.175000  0.775000  0.225000
W1524  W  0.200000  0.750000  0.200000
Nb1458  Nb  0.225000  0.775000  0.225000
Ta1471  Ta  0.250000  0.750000  0.200000
Mo1509  Mo  0.275000  0.775000  0.225000
Ta1472  Ta  0.300000  0.750000  0.200000
W1525  W  0.325000  0.775000  0.225000
Mo1510  Mo  0.350000  0.750000  0.200000
W1526  W  0.375000  0.775000  0.225000
Ta1473  Ta  0.400000  0.750000  0.200000
Nb1459  Nb  0.425000  0.775000  0.225000
Nb1460  Nb  0.450000  0.750000  0.200000
Ta1474  Ta  0.475000  0.775000  0.225000
W1527  W  -0.000000  0.800000  0.200000
Mo1511  Mo  0.025000  0.825000  0.225000
Nb1461  Nb  0.050000  0.800000  0.200000
Ta1475  Ta  0.075000  0.825000  0.225000
Mo1512  Mo  0.100000  0.800000  0.200000
W1528  W  0.125000  0.825000  0.225000
Nb1462  Nb  0.150000  0.800000  0.200000
W1529  W  0.175000  0.825000  0.225000
Ta1476  Ta  0.200000  0.800000  0.200000
Ta1477  Ta  0.225000  0.825000  0.225000
Nb1463  Nb  0.250000  0.800000  0.200000
Nb1464  Nb  0.275000  0.825000  0.225000
Ta1478  Ta  0.300000  0.800000  0.200000
W1530  W  0.325000  0.825000  0.225000
Ta1479  Ta  0.350000  0.800000  0.200000
Mo1513  Mo  0.375000  0.825000  0.225000
W1531  W  0.400000  0.800000  0.200000
Ta1480  Ta  0.425000  0.825000  0.225000
Mo1514  Mo  0.450000  0.800000  0.200000
Mo1515  Mo  0.475000  0.825000  0.225000
W1532  W  -0.000000  0.850000  0.200000
Nb1465  Nb  0.025000  0.875000  0.225000
Ta1481  Ta  0.050000  0.850000  0.200000
W1533  W  0.075000  0.875000  0.225000
Nb1466  Nb  0.100000  0.850000  0.200000
Mo1516  Mo  0.125000  0.875000  0.225000
Nb1467  Nb  0.150000  0.850000  0.200000
Ta1482  Ta  0.175000  0.875000  0.225000
Ta1483  Ta  0.200000  0.850000  0.200000
W1534  W  0.225000  0.875000  0.225000
W1535  W  0.250000  0.850000  0.200000
W1536  W  0.275000  0.875000  0.225000
W1537  W  0.300000  0.850000  0.200000
Nb1468  Nb  0.325000  0.875000  0.225000
W1538  W  0.350000  0.850000  0.200000
W1539  W  0.375000  0.875000  0.225000
Mo1517  Mo  0.400000  0.850000  0.200000
Mo1518  Mo  0.425000  0.875000  0.225000
Ta1484  Ta  0.450000  0.850000  0.200000
Ta1485  Ta  0.475000  0.875000  0.225000
Ta1486  Ta  -0.000000  0.900000  0.200000
Ta1487  Ta  0.025000  0.925000  0.225000
Ta1488  Ta  0.050000  0.900000  0.200000
Ta1489  Ta  0.075000  0.925000  0.225000
Nb1469  Nb  0.100000  0.900000  0.200000
Nb1470  Nb  0.125000  0.925000  0.225000
Ta1490  Ta  0.150000  0.900000  0.200000
Ta1491  Ta  0.175000  0.925000  0.225000
Ta1492  Ta  0.200000  0.900000  0.200000
Nb1471  Nb  0.225000  0.925000  0.225000
Ta1493  Ta  0.250000  0.900000  0.200000
W1540  W  0.275000  0.925000  0.225000
Nb1472  Nb  0.300000  0.900000  0.200000
W1541  W  0.325000  0.925000  0.225000
Nb1473  Nb  0.350000  0.900000  0.200000
Ta1494  Ta  0.375000  0.925000  0.225000
W1542  W  0.400000  0.900000  0.200000
Nb1474  Nb  0.425000  0.925000  0.225000
Nb1475  Nb  0.450000  0.900000  0.200000
Mo1519  Mo  0.475000  0.925000  0.225000
W1543  W  -0.000000  0.950000  0.200000
Mo1520  Mo  0.025000  0.975000  0.225000
Mo1521  Mo  0.050000  0.950000  0.200000
W1544  W  0.075000  0.975000  0.225000
Mo1522  Mo  0.100000  0.950000  0.200000
Nb1476  Nb  0.125000  0.975000  0.225000
Mo1523  Mo  0.150000  0.950000  0.200000
Nb1477  Nb  0.175000  0.975000  0.225000
Ta1495  Ta  0.200000  0.950000  0.200000
Ta1496  Ta  0.225000  0.975000  0.225000
Mo1524  Mo  0.250000  0.950000  0.200000
Mo1525  Mo  0.275000  0.975000  0.225000
Nb1478  Nb  0.300000  0.950000  0.200000
Nb1479  Nb  0.325000  0.975000  0.225000
Ta1497  Ta  0.350000  0.950000  0.200000
Ta1498  Ta  0.375000  0.975000  0.225000
W1545  W  0.400000  0.950000  0.200000
Nb1480  Nb  0.425000  0.975000  0.225000
Nb1481  Nb  0.450000  0.950000  0.200000
W1546  W  0.475000  0.975000  0.225000
W1547  W  0.025000  0.675000  0.275000
W1548  W  0.075000  0.675000  0.275000
Ta1499  Ta  0.125000  0.675000  0.275000
Ta1500  Ta  0.175000  0.675000  0.275000
Nb1482  Nb  0.225000  0.675000  0.275000
Nb1483  Nb  0.275000  0.675000  0.275000
Mo1526  Mo  0.325000  0.675000  0.275000
Nb1484  Nb  0.375000  0.675000  0.275000
Mo1527  Mo  0.425000  0.675000  0.275000
Nb1485  Nb  0.475000  0.675000  0.275000
Ta1501  Ta  -0.000000  0.700000  0.250000
Nb1486  Nb  0.025000  0.725000  0.275000
Mo1528  Mo  0.050000  0.700000  0.250000
Ta1502  Ta  0.075000  0.725000  0.275000
Mo1529  Mo  0.100000  0.700000  0.250000
W1549  W  0.125000  0.725000  0.275000
Nb1487  Nb  0.150000  0.700000  0.250000
Nb1488  Nb  0.175000  0.725000  0.275000
Nb1489  Nb  0.200000  0.700000  0.250000
Ta1503  Ta  0.225000  0.725000  0.275000
Mo1530  Mo  0.250000  0.700000  0.250000
W1550  W  0.275000  0.725000  0.275000
Nb1490  Nb  0.300000  0.700000  0.250000
Ta1504  Ta  0.325000  0.725000  0.275000
Mo1531  Mo  0.350000  0.700000  0.250000
Mo1532  Mo  0.375000  0.725000  0.275000
Mo1533  Mo  0.400000  0.700000  0.250000
Ta1505  Ta  0.425000  0.725000  0.275000
Nb1491  Nb  0.450000  0.700000  0.250000
Nb1492  Nb  0.475000  0.725000  0.275000
W1551  W  -0.000000  0.750000  0.250000
Mo1534  Mo  0.025000  0.775000  0.275000
Nb1493  Nb  0.050000  0.750000  0.250000
W1552  W  0.075000  0.775000  0.275000
W1553  W  0.100000  0.750000  0.250000
Nb1494  Nb  0.125000  0.775000  0.275000
Mo1535  Mo  0.150000  0.750000  0.250000
Mo1536  Mo  0.175000  0.775000  0.275000
Mo1537  Mo  0.200000  0.750000  0.250000
Nb1495  Nb  0.225000  0.775000  0.275000
Mo1538  Mo  0.250000  0.750000  0.250000
Ta1506  Ta  0.275000  0.775000  0.275000
Nb1496  Nb  0.300000  0.750000  0.250000
Nb1497  Nb  0.325000  0.775000  0.275000
W1554  W  0.350000  0.750000  0.250000
Ta1507  Ta  0.375000  0.775000  0.275000
W1555  W  0.400000  0.750000  0.250000
Ta1508  Ta  0.425000  0.775000  0.275000
Mo1539  Mo  0.450000  0.750000  0.250000
Mo1540  Mo  0.475000  0.775000  0.275000
Ta1509  Ta  -0.000000  0.800000  0.250000
Nb1498  Nb  0.025000  0.825000  0.275000
W1556  W  0.050000  0.800000  0.250000
Nb1499  Nb  0.075000  0.825000  0.275000
Nb1500  Nb  0.100000  0.800000  0.250000
W1557  W  0.125000  0.825000  0.275000
Ta1510  Ta  0.150000  0.800000  0.250000
W1558  W  0.175000  0.825000  0.275000
Ta1511  Ta  0.200000  0.800000  0.250000
Nb1501  Nb  0.225000  0.825000  0.275000
Ta1512  Ta  0.250000  0.800000  0.250000
Ta1513  Ta  0.275000  0.825000  0.275000
Nb1502  Nb  0.300000  0.800000  0.250000
Mo1541  Mo  0.325000  0.825000  0.275000
Mo1542  Mo  0.350000  0.800000  0.250000
Ta1514  Ta  0.375000  0.825000  0.275000
Mo1543  Mo  0.400000  0.800000  0.250000
Ta1515  Ta  0.425000  0.825000  0.275000
W1559  W  0.450000  0.800000  0.250000
Ta1516  Ta  0.475000  0.825000  0.275000
W1560  W  -0.000000  0.850000  0.250000
Nb1503  Nb  0.025000  0.875000  0.275000
Ta1517  Ta  0.050000  0.850000  0.250000
Mo1544  Mo  0.075000  0.875000  0.275000
W1561  W  0.100000  0.850000  0.250000
Nb1504  Nb  0.125000  0.875000  0.275000
W1562  W  0.150000  0.850000  0.250000
Nb1505  Nb  0.175000  0.875000  0.275000
Nb1506  Nb  0.200000  0.850000  0.250000
Ta1518  Ta  0.225000  0.875000  0.275000
Nb1507  Nb  0.250000  0.850000  0.250000
Ta1519  Ta  0.275000  0.875000  0.275000
Nb1508  Nb  0.300000  0.850000  0.250000
Ta1520  Ta  0.325000  0.875000  0.275000
Ta1521  Ta  0.350000  0.850000  0.250000
Mo1545  Mo  0.375000  0.875000  0.275000
Nb1509  Nb  0.400000  0.850000  0.250000
W1563  W  0.425000  0.875000  0.275000
Nb1510  Nb  0.450000  0.850000  0.250000
Ta1522  Ta  0.475000  0.875000  0.275000
W1564  W  -0.000000  0.900000  0.250000
Nb1511  Nb  0.025000  0.925000  0.275000
W1565  W  0.050000  0.900000  0.250000
Ta1523  Ta  0.075000  0.925000  0.275000
Ta1524  Ta  0.100000  0.900000  0.250000
Mo1546  Mo  0.125000  0.925000  0.275000
W1566  W  0.150000  0.900000  0.250000
Mo1547  Mo  0.175000  0.925000  0.275000
Nb1512  Nb  0.200000  0.900000  0.250000
Ta1525  Ta  0.225000  0.925000  0.275000
Nb1513  Nb  0.250000  0.900000  0.250000
Nb1514  Nb  0.275000  0.925000  0.275000
Mo1548  Mo  0.300000  0.900000  0.250000
Nb1515  Nb  0.325000  0.925000  0.275000
Mo1549  Mo  0.350000  0.900000  0.250000
W1567  W  0.375000  0.925000  0.275000
Mo1550  Mo  0.400000  0.900000  0.250000
W1568  W  0.425000  0.925000  0.275000
Mo1551  Mo  0.450000  0.900000  0.250000
W1569  W  0.475000  0.925000  0.275000
W1570  W  -0.000000  0.950000  0.250000
Mo1552  Mo  0.025000  0.975000  0.275000
Nb1516  Nb  0.050000  0.950000  0.250000
Nb1517  Nb  0.075000  0.975000  0.275000
Mo1553  Mo  0.100000  0.950000  0.250000
Ta1526  Ta  0.125000  0.975000  0.275000
Ta1527  Ta  0.150000  0.950000  0.250000
W1571  W  0.175000  0.975000  0.275000
Nb1518  Nb  0.200000  0.950000  0.250000
Mo1554  Mo  0.225000  0.975000  0.275000
W1572  W  0.250000  0.950000  0.250000
W1573  W  0.275000  0.975000  0.275000
Mo1555  Mo  0.300000  0.950000  0.250000
Ta1528  Ta  0.325000  0.975000  0.275000
Nb1519  Nb  0.350000  0.950000  0.250000
W1574  W  0.375000  0.975000  0.275000
Mo1556  Mo  0.400000  0.950000  0.250000
Mo1557  Mo  0.425000  0.975000  0.275000
Ta1529  Ta  0.450000  0.950000  0.250000
Mo1558  Mo  0.475000  0.975000  0.275000
Nb1520  Nb  0.025000  0.675000  0.325000
Mo1559  Mo  0.075000  0.675000  0.325000
Mo1560  Mo  0.125000  0.675000  0.325000
W1575  W  0.175000  0.675000  0.325000
Ta1530  Ta  0.225000  0.675000  0.325000
Nb1521  Nb  0.275000  0.675000  0.325000
W1576  W  0.325000  0.675000  0.325000
Nb1522  Nb  0.375000  0.675000  0.325000
Mo1561  Mo  0.425000  0.675000  0.325000
W1577  W  0.475000  0.675000  0.325000
Ta1531  Ta  -0.000000  0.700000  0.300000
Ta1532  Ta  0.025000  0.725000  0.325000
Nb1523  Nb  0.050000  0.700000  0.300000
Mo1562  Mo  0.075000  0.725000  0.325000
W1578  W  0.100000  0.700000  0.300000
Ta1533  Ta  0.125000  0.725000  0.325000
Mo1563  Mo  0.150000  0.700000  0.300000
W1579  W  0.175000  0.725000  0.325000
Nb1524  Nb  0.200000  0.700000  0.300000
Nb1525  Nb  0.225000  0.725000  0.325000
Nb1526  Nb  0.250000  0.700000  0.300000
Mo1564  Mo  0.275000  0.725000  0.325000
Nb1527  Nb  0.300000  0.700000  0.300000
Mo1565  Mo  0.325000  0.725000  0.325000
Nb1528  Nb  0.350000  0.700000  0.300000
Nb1529  Nb  0.375000  0.725000  0.325000
W1580  W  0.400000  0.700000  0.300000
Nb1530  Nb  0.425000  0.725000  0.325000
Nb1531  Nb  0.450000  0.700000  0.300000
W1581  W  0.475000  0.725000  0.325000
Mo1566  Mo  -0.000000  0.750000  0.300000
W1582  W  0.025000  0.775000  0.325000
Mo1567  Mo  0.050000  0.750000  0.300000
Ta1534  Ta  0.075000  0.775000  0.325000
Mo1568  Mo  0.100000  0.750000  0.300000
Mo1569  Mo  0.125000  0.775000  0.325000
Nb1532  Nb  0.150000  0.750000  0.300000
Ta1535  Ta  0.175000  0.775000  0.325000
Nb1533  Nb  0.200000  0.750000  0.300000
Nb1534  Nb  0.225000  0.775000  0.325000
Mo1570  Mo  0.250000  0.750000  0.300000
Mo1571  Mo  0.275000  0.775000  0.325000
Mo1572  Mo  0.300000  0.750000  0.300000
Mo1573  Mo  0.325000  0.775000  0.325000
Ta1536  Ta  0.350000  0.750000  0.300000
Nb1535  Nb  0.375000  0.775000  0.325000
Ta1537  Ta  0.400000  0.750000  0.300000
Mo1574  Mo  0.425000  0.775000  0.325000
Nb1536  Nb  0.450000  0.750000  0.300000
W1583  W  0.475000  0.775000  0.325000
Nb1537  Nb  -0.000000  0.800000  0.300000
Ta1538  Ta  0.025000  0.825000  0.325000
Ta1539  Ta  0.050000  0.800000  0.300000
Ta1540  Ta  0.075000  0.825000  0.325000
Nb1538  Nb  0.100000  0.800000  0.300000
Mo1575  Mo  0.125000  0.825000  0.325000
Nb1539  Nb  0.150000  0.800000  0.300000
Nb1540  Nb  0.175000  0.825000  0.325000
W1584  W  0.200000  0.800000  0.300000
Mo1576  Mo  0.225000  0.825000  0.325000
Nb1541  Nb  0.250000  0.800000  0.300000
Mo1577  Mo  0.275000  0.825000  0.325000
Ta1541  Ta  0.300000  0.800000  0.300000
W1585  W  0.325000  0.825000  0.325000
Nb1542  Nb  0.350000  0.800000  0.300000
Mo1578  Mo  0.375000  0.825000  0.325000
Mo1579  Mo  0.400000  0.800000  0.300000
Ta1542  Ta  0.425000  0.825000  0.325000
Ta1543  Ta  0.450000  0.800000  0.300000
Ta1544  Ta  0.475000  0.825000  0.325000
Mo1580  Mo  -0.000000  0.850000  0.300000
Mo1581  Mo  0.025000  0.875000  0.325000
W1586  W  0.050000  0.850000  0.300000
Ta1545  Ta  0.075000  0.875000  0.325000
Ta1546  Ta  0.100000  0.850000  0.300000
Ta1547  Ta  0.125000  0.875000  0.325000
Ta1548  Ta  0.150000  0.850000  0.300000
W1587  W  0.175000  0.875000  0.325000
W1588  W  0.200000  0.850000  0.300000
Mo1582  Mo  0.225000  0.875000  0.325000
Mo1583  Mo  0.250000  0.850000  0.300000
Ta1549  Ta  0.275000  0.875000  0.325000
Mo1584  Mo  0.300000  0.850000  0.300000
Mo1585  Mo  0.325000  0.875000  0.325000
W1589  W  0.350000  0.850000  0.300000
Mo1586  Mo  0.375000  0.875000  0.325000
W1590  W  0.400000  0.850000  0.300000
W1591  W  0.425000  0.875000  0.325000
W1592  W  0.450000  0.850000  0.300000
Nb1543  Nb  0.475000  0.875000  0.325000
Nb1544  Nb  -0.000000  0.900000  0.300000
Ta1550  Ta  0.025000  0.925000  0.325000
Nb1545  Nb  0.050000  0.900000  0.300000
W1593  W  0.075000  0.925000  0.325000
Nb1546  Nb  0.100000  0.900000  0.300000
Ta1551  Ta  0.125000  0.925000  0.325000
W1594  W  0.150000  0.900000  0.300000
Nb1547  Nb  0.175000  0.925000  0.325000
W1595  W  0.200000  0.900000  0.300000
W1596  W  0.225000  0.925000  0.325000
W1597  W  0.250000  0.900000  0.300000
Ta1552  Ta  0.275000  0.925000  0.325000
Mo1587  Mo  0.300000  0.900000  0.300000
Ta1553  Ta  0.325000  0.925000  0.325000
Ta1554  Ta  0.350000  0.900000  0.300000
Mo1588  Mo  0.375000  0.925000  0.325000
W1598  W  0.400000  0.900000  0.300000
Ta1555  Ta  0.425000  0.925000  0.325000
Nb1548  Nb  0.450000  0.900000  0.300000
Mo1589  Mo  0.475000  0.925000  0.325000
Nb1549  Nb  -0.000000  0.950000  0.300000
Ta1556  Ta  0.025000  0.975000  0.325000
Mo1590  Mo  0.050000  0.950000  0.300000
Ta1557  Ta  0.075000  0.975000  0.325000
Ta1558  Ta  0.100000  0.950000  0.300000
W1599  W  0.125000  0.975000  0.325000
Nb1550  Nb  0.150000  0.950000  0.300000
Ta1559  Ta  0.175000  0.975000  0.325000
Nb1551  Nb  0.200000  0.950000  0.300000
Mo1591  Mo  0.225000  0.975000  0.325000
Ta1560  Ta  0.250000  0.950000  0.300000
W1600  W  0.275000  0.975000  0.325000
W1601  W  0.300000  0.950000  0.300000
Ta1561  Ta  0.325000  0.975000  0.325000
W1602  W  0.350000  0.950000  0.300000
W1603  W  0.375000  0.975000  0.325000
Ta1562  Ta  0.400000  0.950000  0.300000
Nb1552  Nb  0.425000  0.975000  0.325000
Mo1592  Mo  0.450000  0.950000  0.300000
Mo1593  Mo  0.475000  0.975000  0.325000
Nb1553  Nb  0.025000  0.675000  0.375000
W1604  W  0.075000  0.675000  0.375000
Ta1563  Ta  0.125000  0.675000  0.375000
W1605  W  0.175000  0.675000  0.375000
Nb1554  Nb  0.225000  0.675000  0.375000
W1606  W  0.275000  0.675000  0.375000
Mo1594  Mo  0.325000  0.675000  0.375000
W1607  W  0.375000  0.675000  0.375000
Mo1595  Mo  0.425000  0.675000  0.375000
Ta1564  Ta  0.475000  0.675000  0.375000
Ta1565  Ta  -0.000000  0.700000  0.350000
Nb1555  Nb  0.025000  0.725000  0.375000
W1608  W  0.050000  0.700000  0.350000
Nb1556  Nb  0.075000  0.725000  0.375000
Nb1557  Nb  0.100000  0.700000  0.350000
W1609  W  0.125000  0.725000  0.375000
Ta1566  Ta  0.150000  0.700000  0.350000
W1610  W  0.175000  0.725000  0.375000
Ta1567  Ta  0.200000  0.700000  0.350000
Nb1558  Nb  0.225000  0.725000  0.375000
Ta1568  Ta  0.250000  0.700000  0.350000
Ta1569  Ta  0.275000  0.725000  0.375000
Mo1596  Mo  0.300000  0.700000  0.350000
Nb1559  Nb  0.325000  0.725000  0.375000
Mo1597  Mo  0.350000  0.700000  0.350000
W1611  W  0.375000  0.725000  0.375000
Mo1598  Mo  0.400000  0.700000  0.350000
Nb1560  Nb  0.425000  0.725000  0.375000
W1612  W  0.450000  0.700000  0.350000
W1613  W  0.475000  0.725000  0.375000
Nb1561  Nb  -0.000000  0.750000  0.350000
Mo1599  Mo  0.025000  0.775000  0.375000
Ta1570  Ta  0.050000  0.750000  0.350000
Nb1562  Nb  0.075000  0.775000  0.375000
Ta1571  Ta  0.100000  0.750000  0.350000
Nb1563  Nb  0.125000  0.775000  0.375000
Mo1600  Mo  0.150000  0.750000  0.350000
Mo1601  Mo  0.175000  0.775000  0.375000
W1614  W  0.200000  0.750000  0.350000
W1615  W  0.225000  0.775000  0.375000
Nb1564  Nb  0.250000  0.750000  0.350000
Mo1602  Mo  0.275000  0.775000  0.375000
W1616  W  0.300000  0.750000  0.350000
Ta1572  Ta  0.325000  0.775000  0.375000
W1617  W  0.350000  0.750000  0.350000
Nb1565  Nb  0.375000  0.775000  0.375000
Mo1603  Mo  0.400000  0.750000  0.350000
Nb1566  Nb  0.425000  0.775000  0.375000
Mo1604  Mo  0.450000  0.750000  0.350000
Ta1573  Ta  0.475000  0.775000  0.375000
Ta1574  Ta  -0.000000  0.800000  0.350000
Mo1605  Mo  0.025000  0.825000  0.375000
Ta1575  Ta  0.050000  0.800000  0.350000
W1618  W  0.075000  0.825000  0.375000
Mo1606  Mo  0.100000  0.800000  0.350000
Ta1576  Ta  0.125000  0.825000  0.375000
W1619  W  0.150000  0.800000  0.350000
Mo1607  Mo  0.175000  0.825000  0.375000
Nb1567  Nb  0.200000  0.800000  0.350000
Mo1608  Mo  0.225000  0.825000  0.375000
Ta1577  Ta  0.250000  0.800000  0.350000
Ta1578  Ta  0.275000  0.825000  0.375000
W1620  W  0.300000  0.800000  0.350000
Nb1568  Nb  0.325000  0.825000  0.375000
Mo1609  Mo  0.350000  0.800000  0.350000
Nb1569  Nb  0.375000  0.825000  0.375000
Nb1570  Nb  0.400000  0.800000  0.350000
Nb1571  Nb  0.425000  0.825000  0.375000
Ta1579  Ta  0.450000  0.800000  0.350000
Ta1580  Ta  0.475000  0.825000  0.375000
Mo1610  Mo  -0.000000  0.850000  0.350000
W1621  W  0.025000  0.875000  0.375000
Ta1581  Ta  0.050000  0.850000  0.350000
Ta1582  Ta  0.075000  0.875000  0.375000
W1622  W  0.100000  0.850000  0.350000
W1623  W  0.125000  0.875000  0.375000
Nb1572  Nb  0.150000  0.850000  0.350000
W1624  W  0.175000  0.875000  0.375000
Mo1611  Mo  0.200000  0.850000  0.350000
Nb1573  Nb  0.225000  0.875000  0.375000
W1625  W  0.250000  0.850000  0.350000
Nb1574  Nb  0.275000  0.875000  0.375000
Ta1583  Ta  0.300000  0.850000  0.350000
Nb1575  Nb  0.325000  0.875000  0.375000
W1626  W  0.350000  0.850000  0.350000
Mo1612  Mo  0.375000  0.875000  0.375000
Ta1584  Ta  0.400000  0.850000  0.350000
Mo1613  Mo  0.425000  0.875000  0.375000
Mo1614  Mo  0.450000  0.850000  0.350000
Mo1615  Mo  0.475000  0.875000  0.375000
Nb1576  Nb  -0.000000  0.900000  0.350000
Nb1577  Nb  0.025000  0.925000  0.375000
Nb1578  Nb  0.050000  0.900000  0.350000
W1627  W  0.075000  0.925000  0.375000
Nb1579  Nb  0.100000  0.900000  0.350000
W1628  W  0.125000  0.925000  0.375000
Nb1580  Nb  0.150000  0.900000  0.350000
W1629  W  0.175000  0.925000  0.375000
Ta1585  Ta  0.200000  0.900000  0.350000
Nb1581  Nb  0.225000  0.925000  0.375000
Nb1582  Nb  0.250000  0.900000  0.350000
Ta1586  Ta  0.275000  0.925000  0.375000
Ta1587  Ta  0.300000  0.900000  0.350000
Nb1583  Nb  0.325000  0.925000  0.375000
W1630  W  0.350000  0.900000  0.350000
Mo1616  Mo  0.375000  0.925000  0.375000
Mo1617  Mo  0.400000  0.900000  0.350000
Mo1618  Mo  0.425000  0.925000  0.375000
Ta1588  Ta  0.450000  0.900000  0.350000
Nb1584  Nb  0.475000  0.925000  0.375000
W1631  W  -0.000000  0.950000  0.350000
Ta1589  Ta  0.025000  0.975000  0.375000
Mo1619  Mo  0.050000  0.950000  0.350000
Nb1585  Nb  0.075000  0.975000  0.375000
W1632  W  0.100000  0.950000  0.350000
Mo1620  Mo  0.125000  0.975000  0.375000
Mo1621  Mo  0.150000  0.950000  0.350000
Ta1590  Ta  0.175000  0.975000  0.375000
Ta1591  Ta  0.200000  0.950000  0.350000
Mo1622  Mo  0.225000  0.975000  0.375000
Mo1623  Mo  0.250000  0.950000  0.350000
Mo1624  Mo  0.275000  0.975000  0.375000
Nb1586  Nb  0.300000  0.950000  0.350000
Nb1587  Nb  0.325000  0.975000  0.375000
W1633  W  0.350000  0.950000  0.350000
Mo1625  Mo  0.375000  0.975000  0.375000
Nb1588  Nb  0.400000  0.950000  0.350000
Ta1592  Ta  0.425000  0.975000  0.375000
Mo1626  Mo  0.450000  0.950000  0.350000
W1634  W  0.475000  0.975000  0.375000
W1635  W  0.025000  0.675000  0.425000
Ta1593  Ta  0.075000  0.675000  0.425000
Ta1594  Ta  0.125000  0.675000  0.425000
Nb1589  Nb  0.175000  0.675000  0.425000
Mo1627  Mo  0.225000  0.675000  0.425000
Nb1590  Nb  0.275000  0.675000  0.425000
Nb1591  Nb  0.325000  0.675000  0.425000
Nb1592  Nb  0.375000  0.675000  0.425000
Ta1595  Ta  0.425000  0.675000  0.425000
W1636  W  0.475000  0.675000  0.425000
Mo1628  Mo  -0.000000  0.700000  0.400000
Ta1596  Ta  0.025000  0.725000  0.425000
W1637  W  0.050000  0.700000  0.400000
Ta1597  Ta  0.075000  0.725000  0.425000
Mo1629  Mo  0.100000  0.700000  0.400000
W1638  W  0.125000  0.725000  0.425000
W1639  W  0.150000  0.700000  0.400000
Ta1598  Ta  0.175000  0.725000  0.425000
Mo1630  Mo  0.200000  0.700000  0.400000
Mo1631  Mo  0.225000  0.725000  0.425000
Nb1593  Nb  0.250000  0.700000  0.400000
Ta1599  Ta  0.275000  0.725000  0.425000
Ta1600  Ta  0.300000  0.700000  0.400000
Ta1601  Ta  0.325000  0.725000  0.425000
Mo1632  Mo  0.350000  0.700000  0.400000
W1640  W  0.375000  0.725000  0.425000
W1641  W  0.400000  0.700000  0.400000
W1642  W  0.425000  0.725000  0.425000
Mo1633  Mo  0.450000  0.700000  0.400000
Ta1602  Ta  0.475000  0.725000  0.425000
Ta1603  Ta  -0.000000  0.750000  0.400000
Mo1634  Mo  0.025000  0.775000  0.425000
Mo1635  Mo  0.050000  0.750000  0.400000
Mo1636  Mo  0.075000  0.775000  0.425000
Ta1604  Ta  0.100000  0.750000  0.400000
W1643  W  0.125000  0.775000  0.425000
W1644  W  0.150000  0.750000  0.400000
Ta1605  Ta  0.175000  0.775000  0.425000
Nb1594  Nb  0.200000  0.750000  0.400000
Ta1606  Ta  0.225000  0.775000  0.425000
W1645  W  0.250000  0.750000  0.400000
W1646  W  0.275000  0.775000  0.425000
Mo1637  Mo  0.300000  0.750000  0.400000
Nb1595  Nb  0.325000  0.775000  0.425000
Nb1596  Nb  0.350000  0.750000  0.400000
Ta1607  Ta  0.375000  0.775000  0.425000
W1647  W  0.400000  0.750000  0.400000
W1648  W  0.425000  0.775000  0.425000
W1649  W  0.450000  0.750000  0.400000
W1650  W  0.475000  0.775000  0.425000
Nb1597  Nb  -0.000000  0.800000  0.400000
W1651  W  0.025000  0.825000  0.425000
Nb1598  Nb  0.050000  0.800000  0.400000
Ta1608  Ta  0.075000  0.825000  0.425000
W1652  W  0.100000  0.800000  0.400000
Nb1599  Nb  0.125000  0.825000  0.425000
Ta1609  Ta  0.150000  0.800000  0.400000
Ta1610  Ta  0.175000  0.825000  0.425000
Ta1611  Ta  0.200000  0.800000  0.400000
W1653  W  0.225000  0.825000  0.425000
Mo1638  Mo  0.250000  0.800000  0.400000
Nb1600  Nb  0.275000  0.825000  0.425000
Ta1612  Ta  0.300000  0.800000  0.400000
W1654  W  0.325000  0.825000  0.425000
Mo1639  Mo  0.350000  0.800000  0.400000
Mo1640  Mo  0.375000  0.825000  0.425000
Nb1601  Nb  0.400000  0.800000  0.400000
Nb1602  Nb  0.425000  0.825000  0.425000
Ta1613  Ta  0.450000  0.800000  0.400000
Ta1614  Ta  0.475000  0.825000  0.425000
Nb1603  Nb  -0.000000  0.850000  0.400000
Nb1604  Nb  0.025000  0.875000  0.425000
W1655  W  0.050000  0.850000  0.400000
Ta1615  Ta  0.075000  0.875000  0.425000
Nb1605  Nb  0.100000  0.850000  0.400000
Nb1606  Nb  0.125000  0.875000  0.425000
Ta1616  Ta  0.150000  0.850000  0.400000
Nb1607  Nb  0.175000  0.875000  0.425000
Nb1608  Nb  0.200000  0.850000  0.400000
Mo1641  Mo  0.225000  0.875000  0.425000
Mo1642  Mo  0.250000  0.850000  0.400000
W1656  W  0.275000  0.875000  0.425000
Mo1643  Mo  0.300000  0.850000  0.400000
Ta1617  Ta  0.325000  0.875000  0.425000
Nb1609  Nb  0.350000  0.850000  0.400000
W1657  W  0.375000  0.875000  0.425000
Nb1610  Nb  0.400000  0.850000  0.400000
Nb1611  Nb  0.425000  0.875000  0.425000
Ta1618  Ta  0.450000  0.850000  0.400000
W1658  W  0.475000  0.875000  0.425000
Nb1612  Nb  -0.000000  0.900000  0.400000
W1659  W  0.025000  0.925000  0.425000
Ta1619  Ta  0.050000  0.900000  0.400000
Mo1644  Mo  0.075000  0.925000  0.425000
Ta1620  Ta  0.100000  0.900000  0.400000
W1660  W  0.125000  0.925000  0.425000
Mo1645  Mo  0.150000  0.900000  0.400000
Mo1646  Mo  0.175000  0.925000  0.425000
Nb1613  Nb  0.200000  0.900000  0.400000
W1661  W  0.225000  0.925000  0.425000
Ta1621  Ta  0.250000  0.900000  0.400000
W1662  W  0.275000  0.925000  0.425000
Mo1647  Mo  0.300000  0.900000  0.400000
Ta1622  Ta  0.325000  0.925000  0.425000
Mo1648  Mo  0.350000  0.900000  0.400000
Nb1614  Nb  0.375000  0.925000  0.425000
Nb1615  Nb  0.400000  0.900000  0.400000
W1663  W  0.425000  0.925000  0.425000
Mo1649  Mo  0.450000  0.900000  0.400000
Mo1650  Mo  0.475000  0.925000  0.425000
Ta1623  Ta  -0.000000  0.950000  0.400000
Ta1624  Ta  0.025000  0.975000  0.425000
W1664  W  0.050000  0.950000  0.400000
Nb1616  Nb  0.075000  0.975000  0.425000
Ta1625  Ta  0.100000  0.950000  0.400000
Mo1651  Mo  0.125000  0.975000  0.425000
Mo1652  Mo  0.150000  0.950000  0.400000
Nb1617  Nb  0.175000  0.975000  0.425000
Ta1626  Ta  0.200000  0.950000  0.400000
W1665  W  0.225000  0.975000  0.425000
Nb1618  Nb  0.250000  0.950000  0.400000
Mo1653  Mo  0.275000  0.975000  0.425000
Ta1627  Ta  0.300000  0.950000  0.400000
Mo1654  Mo  0.325000  0.975000  0.425000
Ta1628  Ta  0.350000  0.950000  0.400000
Ta1629  Ta  0.375000  0.975000  0.425000
Mo1655  Mo  0.400000  0.950000  0.400000
Ta1630  Ta  0.425000  0.975000  0.425000
Nb1619  Nb  0.450000  0.950000  0.400000
Nb1620  Nb  0.475000  0.975000  0.425000
W1666  W  0.025000  0.675000  0.475000
Mo1656  Mo  0.075000  0.675000  0.475000
W1667  W  0.125000  0.675000  0.475000
W1668  W  0.175000  0.675000  0.475000
Nb1621  Nb  0.225000  0.675000  0.475000
Mo1657  Mo  0.275000  0.675000  0.475000
W1669  W  0.325000  0.675000  0.475000
W1670  W  0.375000  0.675000  0.475000
Ta1631  Ta  0.425000  0.675000  0.475000
Nb1622  Nb  0.475000  0.675000  0.475000
Nb1623  Nb  -0.000000  0.700000  0.450000
Ta1632  Ta  0.025000  0.725000  0.475000
Mo1658  Mo  0.050000  0.700000  0.450000
Mo1659  Mo  0.075000  0.725000  0.475000
W1671  W  0.100000  0.700000  0.450000
Nb1624  Nb  0.125000  0.725000  0.475000
W1672  W  0.150000  0.700000  0.450000
Ta1633  Ta  0.175000  0.725000  0.475000
Nb1625  Nb  0.200000  0.700000  0.450000
Mo1660  Mo  0.225000  0.725000  0.475000
W1673  W  0.250000  0.700000  0.450000
Mo1661  Mo  0.275000  0.725000  0.475000
Nb1626  Nb  0.300000  0.700000  0.450000
Nb1627  Nb  0.325000  0.725000  0.475000
Nb1628  Nb  0.350000  0.700000  0.450000
Ta1634  Ta  0.375000  0.725000  0.475000
W1674  W  0.400000  0.700000  0.450000
Nb1629  Nb  0.425000  0.725000  0.475000
Mo1662  Mo  0.450000  0.700000  0.450000
W1675  W  0.475000  0.725000  0.475000
W1676  W  -0.000000  0.750000  0.450000
W1677  W  0.025000  0.775000  0.475000
Ta1635  Ta  0.050000  0.750000  0.450000
Ta1636  Ta  0.075000  0.775000  0.475000
W1678  W  0.100000  0.750000  0.450000
Ta1637  Ta  0.125000  0.775000  0.475000
Nb1630  Nb  0.150000  0.750000  0.450000
Mo1663  Mo  0.175000  0.775000  0.475000
Mo1664  Mo  0.200000  0.750000  0.450000
Ta1638  Ta  0.225000  0.775000  0.475000
Ta1639  Ta  0.250000  0.750000  0.450000
Mo1665  Mo  0.275000  0.775000  0.475000
W1679  W  0.300000  0.750000  0.450000
Mo1666  Mo  0.325000  0.775000  0.475000
Mo1667  Mo  0.350000  0.750000  0.450000
Nb1631  Nb  0.375000  0.775000  0.475000
W1680  W  0.400000  0.750000  0.450000
Ta1640  Ta  0.425000  0.775000  0.475000
Nb1632  Nb  0.450000  0.750000  0.450000
Nb1633  Nb  0.475000  0.775000  0.475000
Nb1634  Nb  -0.000000  0.800000  0.450000
Nb1635  Nb  0.025000  0.825000  0.475000
Ta1641  Ta  0.050000  0.800000  0.450000
Ta1642  Ta  0.075000  0.825000  0.475000
Mo1668  Mo  0.100000  0.800000  0.450000
Ta1643  Ta  0.125000  0.825000  0.475000
W1681  W  0.150000  0.800000  0.450000
Mo1669  Mo  0.175000  0.825000  0.475000
Mo1670  Mo  0.200000  0.800000  0.450000
Ta1644  Ta  0.225000  0.825000  0.475000
Nb1636  Nb  0.250000  0.800000  0.450000
Ta1645  Ta  0.275000  0.825000  0.475000
Ta1646  Ta  0.300000  0.800000  0.450000
Nb1637  Nb  0.325000  0.825000  0.475000
Ta1647  Ta  0.350000  0.800000  0.450000
Mo1671  Mo  0.375000  0.825000  0.475000
Mo1672  Mo  0.400000  0.800000  0.450000
W1682  W  0.425000  0.825000  0.475000
Nb1638  Nb  0.450000  0.800000  0.450000
Mo1673  Mo  0.475000  0.825000  0.475000
Ta1648  Ta  -0.000000  0.850000  0.450000
Nb1639  Nb  0.025000  0.875000  0.475000
Ta1649  Ta  0.050000  0.850000  0.450000
Nb1640  Nb  0.075000  0.875000  0.475000
Nb1641  Nb  0.100000  0.850000  0.450000
Ta1650  Ta  0.125000  0.875000  0.475000
W1683  W  0.150000  0.850000  0.450000
W1684  W  0.175000  0.875000  0.475000
W1685  W  0.200000  0.850000  0.450000
Nb1642  Nb  0.225000  0.875000  0.475000
Ta1651  Ta  0.250000  0.850000  0.450000
Mo1674  Mo  0.275000  0.875000  0.475000
W1686  W  0.300000  0.850000  0.450000
Ta1652  Ta  0.325000  0.875000  0.475000
W1687  W  0.350000  0.850000  0.450000
Nb1643  Nb  0.375000  0.875000  0.475000
Ta1653  Ta  0.400000  0.850000  0.450000
Mo1675  Mo  0.425000  0.875000  0.475000
W1688  W  0.450000  0.850000  0.450000
Ta1654  Ta  0.475000  0.875000  0.475000
Mo1676  Mo  -0.000000  0.900000  0.450000
Nb1644  Nb  0.025000  0.925000  0.475000
Mo1677  Mo  0.050000  0.900000  0.450000
Ta1655  Ta  0.075000  0.925000  0.475000
Nb1645  Nb  0.100000  0.900000  0.450000
Nb1646  Nb  0.125000  0.925000  0.475000
Mo1678  Mo  0.150000  0.900000  0.450000
Ta1656  Ta  0.175000  0.925000  0.475000
Mo1679  Mo  0.200000  0.900000  0.450000
Nb1647  Nb  0.225000  0.925000  0.475000
W1689  W  0.250000  0.900000  0.450000
W1690  W  0.275000  0.925000  0.475000
Ta1657  Ta  0.300000  0.900000  0.450000
Nb1648  Nb  0.325000  0.925000  0.475000
W1691  W  0.350000  0.900000  0.450000
Nb1649  Nb  0.375000  0.925000  0.475000
Nb1650  Nb  0.400000  0.900000  0.450000
Nb1651  Nb  0.425000  0.925000  0.475000
Nb1652  Nb  0.450000  0.900000  0.450000
W1692  W  0.475000  0.925000  0.475000
Ta1658  Ta  -0.000000  0.950000  0.450000
Ta1659  Ta  0.025000  0.975000  0.475000
Nb1653  Nb  0.050000  0.950000  0.450000
Nb1654  Nb  0.075000  0.975000  0.475000
Ta1660  Ta  0.100000  0.950000  0.450000
Mo1680  Mo  0.125000  0.975000  0.475000
Ta1661  Ta  0.150000  0.950000  0.450000
W1693  W  0.175000  0.975000  0.475000
Nb1655  Nb  0.200000  0.950000  0.450000
W1694  W  0.225000  0.975000  0.475000
Ta1662  Ta  0.250000  0.950000  0.450000
Mo1681  Mo  0.275000  0.975000  0.475000
W1695  W  0.300000  0.950000  0.450000
Mo1682  Mo  0.325000  0.975000  0.475000
W1696  W  0.350000  0.950000  0.450000
Mo1683  Mo  0.375000  0.975000  0.475000
Ta1663  Ta  0.400000  0.950000  0.450000
Nb1656  Nb  0.425000  0.975000  0.475000
W1697  W  0.450000  0.950000  0.450000
Ta1664  Ta  0.475000  0.975000  0.475000
Nb1657  Nb  0.025000  0.675000  0.525000
Nb1658  Nb  0.075000  0.675000  0.525000
Nb1659  Nb  0.125000  0.675000  0.525000
Nb1660  Nb  0.175000  0.675000  0.525000
Mo1684  Mo  0.225000  0.675000  0.525000
Ta1665  Ta  0.275000  0.675000  0.525000
Mo1685  Mo  0.325000  0.675000  0.525000
Nb1661  Nb  0.375000  0.675000  0.525000
Mo1686  Mo  0.425000  0.675000  0.525000
Mo1687  Mo  0.475000  0.675000  0.525000
Nb1662  Nb  -0.000000  0.700000  0.500000
Nb1663  Nb  0.025000  0.725000  0.525000
W1698  W  0.050000  0.700000  0.500000
Ta1666  Ta  0.075000  0.725000  0.525000
Mo1688  Mo  0.100000  0.700000  0.500000
W1699  W  0.125000  0.725000  0.525000
Mo1689  Mo  0.150000  0.700000  0.500000
Ta1667  Ta  0.175000  0.725000  0.525000
Nb1664  Nb  0.200000  0.700000  0.500000
Nb1665  Nb  0.225000  0.725000  0.525000
W1700  W  0.250000  0.700000  0.500000
Ta1668  Ta  0.275000  0.725000  0.525000
Mo1690  Mo  0.300000  0.700000  0.500000
Mo1691  Mo  0.325000  0.725000  0.525000
Mo1692  Mo  0.350000  0.700000  0.500000
Nb1666  Nb  0.375000  0.725000  0.525000
Ta1669  Ta  0.400000  0.700000  0.500000
W1701  W  0.425000  0.725000  0.525000
Ta1670  Ta  0.450000  0.700000  0.500000
Ta1671  Ta  0.475000  0.725000  0.525000
Nb1667  Nb  -0.000000  0.750000  0.500000
Nb1668  Nb  0.025000  0.775000  0.525000
Mo1693  Mo  0.050000  0.750000  0.500000
W1702  W  0.075000  0.775000  0.525000
Nb1669  Nb  0.100000  0.750000  0.500000
Ta1672  Ta  0.125000  0.775000  0.525000
W1703  W  0.150000  0.750000  0.500000
W1704  W  0.175000  0.775000  0.525000
Mo1694  Mo  0.200000  0.750000  0.500000
Mo1695  Mo  0.225000  0.775000  0.525000
Mo1696  Mo  0.250000  0.750000  0.500000
Nb1670  Nb  0.275000  0.775000  0.525000
W1705  W  0.300000  0.750000  0.500000
Ta1673  Ta  0.325000  0.775000  0.525000
Mo1697  Mo  0.350000  0.750000  0.500000
W1706  W  0.375000  0.775000  0.525000
W1707  W  0.400000  0.750000  0.500000
Ta1674  Ta  0.425000  0.775000  0.525000
Ta1675  Ta  0.450000  0.750000  0.500000
W1708  W  0.475000  0.775000  0.525000
Mo1698  Mo  -0.000000  0.800000  0.500000
Mo1699  Mo  0.025000  0.825000  0.525000
Nb1671  Nb  0.050000  0.800000  0.500000
Nb1672  Nb  0.075000  0.825000  0.525000
Ta1676  Ta  0.100000  0.800000  0.500000
W1709  W  0.125000  0.825000  0.525000
Mo1700  Mo  0.150000  0.800000  0.500000
Mo1701  Mo  0.175000  0.825000  0.525000
Mo1702  Mo  0.200000  0.800000  0.500000
Nb1673  Nb  0.225000  0.825000  0.525000
Nb1674  Nb  0.250000  0.800000  0.500000
Nb1675  Nb  0.275000  0.825000  0.525000
Mo1703  Mo  0.300000  0.800000  0.500000
Nb1676  Nb  0.325000  0.825000  0.525000
W1710  W  0.350000  0.800000  0.500000
Ta1677  Ta  0.375000  0.825000  0.525000
W1711  W  0.400000  0.800000  0.500000
Ta1678  Ta  0.425000  0.825000  0.525000
Nb1677  Nb  0.450000  0.800000  0.500000
Mo1704  Mo  0.475000  0.825000  0.525000
Mo1705  Mo  -0.000000  0.850000  0.500000
W1712  W  0.025000  0.875000  0.525000
W1713  W  0.050000  0.850000  0.500000
W1714  W  0.075000  0.875000  0.525000
Nb1678  Nb  0.100000  0.850000  0.500000
W1715  W  0.125000  0.875000  0.525000
W1716  W  0.150000  0.850000  0.500000
Mo1706  Mo  0.175000  0.875000  0.525000
Ta1679  Ta  0.200000  0.850000  0.500000
Ta1680  Ta  0.225000  0.875000  0.525000
Ta1681  Ta  0.250000  0.850000  0.500000
Ta1682  Ta  0.275000  0.875000  0.525000
Ta1683  Ta  0.300000  0.850000  0.500000
W1717  W  0.325000  0.875000  0.525000
Nb1679  Nb  0.350000  0.850000  0.500000
Ta1684  Ta  0.375000  0.875000  0.525000
Ta1685  Ta  0.400000  0.850000  0.500000
W1718  W  0.425000  0.875000  0.525000
Ta1686  Ta  0.450000  0.850000  0.500000
W1719  W  0.475000  0.875000  0.525000
W1720  W  -0.000000  0.900000  0.500000
W1721  W  0.025000  0.925000  0.525000
Mo1707  Mo  0.050000  0.900000  0.500000
Ta1687  Ta  0.075000  0.925000  0.525000
Mo1708  Mo  0.100000  0.900000  0.500000
Ta1688  Ta  0.125000  0.925000  0.525000
W1722  W  0.150000  0.900000  0.500000
W1723  W  0.175000  0.925000  0.525000
W1724  W  0.200000  0.900000  0.500000
Nb1680  Nb  0.225000  0.925000  0.525000
Mo1709  Mo  0.250000  0.900000  0.500000
Nb1681  Nb  0.275000  0.925000  0.525000
Mo1710  Mo  0.300000  0.900000  0.500000
Ta1689  Ta  0.325000  0.925000  0.525000
Mo1711  Mo  0.350000  0.900000  0.500000
Ta1690  Ta  0.375000  0.925000  0.525000
W1725  W  0.400000  0.900000  0.500000
W1726  W  0.425000  0.925000  0.525000
W1727  W  0.450000  0.900000  0.500000
Ta1691  Ta  0.475000  0.925000  0.525000
Nb1682  Nb  -0.000000  0.950000  0.500000
W1728  W  0.025000  0.975000  0.525000
Nb1683  Nb  0.050000  0.950000  0.500000
Mo1712  Mo  0.075000  0.975000  0.525000
Nb1684  Nb  0.100000  0.950000  0.500000
Mo1713  Mo  0.125000  0.975000  0.525000
Ta1692  Ta  0.150000  0.950000  0.500000
Mo1714  Mo  0.175000  0.975000  0.525000
Ta1693  Ta  0.200000  0.950000  0.500000
Ta1694  Ta  0.225000  0.975000  0.525000
Ta1695  Ta  0.250000  0.950000  0.500000
W1729  W  0.275000  0.975000  0.525000
Mo1715  Mo  0.300000  0.950000  0.500000
Nb1685  Nb  0.325000  0.975000  0.525000
Nb1686  Nb  0.350000  0.950000  0.500000
Nb1687  Nb  0.375000  0.975000  0.525000
W1730  W  0.400000  0.950000  0.500000
Ta1696  Ta  0.425000  0.975000  0.525000
Mo1716  Mo  0.450000  0.950000  0.500000
Nb1688  Nb  0.475000  0.975000  0.525000
Ta1697  Ta  0.025000  0.675000  0.575000
Nb1689  Nb  0.075000  0.675000  0.575000
W1731  W  0.125000  0.675000  0.575000
Ta1698  Ta  0.175000  0.675000  0.575000
Nb1690  Nb  0.225000  0.675000  0.575000
Nb1691  Nb  0.275000  0.675000  0.575000
Ta1699  Ta  0.325000  0.675000  0.575000
Nb1692  Nb  0.375000  0.675000  0.575000
Mo1717  Mo  0.425000  0.675000  0.575000
Mo1718  Mo  0.475000  0.675000  0.575000
Ta1700  Ta  -0.000000  0.700000  0.550000
Ta1701  Ta  0.025000  0.725000  0.575000
Ta1702  Ta  0.050000  0.700000  0.550000
Nb1693  Nb  0.075000  0.725000  0.575000
W1732  W  0.100000  0.700000  0.550000
W1733  W  0.125000  0.725000  0.575000
Ta1703  Ta  0.150000  0.700000  0.550000
Ta1704  Ta  0.175000  0.725000  0.575000
W1734  W  0.200000  0.700000  0.550000
W1735  W  0.225000  0.725000  0.575000
W1736  W  0.250000  0.700000  0.550000
Ta1705  Ta  0.275000  0.725000  0.575000
Nb1694  Nb  0.300000  0.700000  0.550000
Mo1719  Mo  0.325000  0.725000  0.575000
W1737  W  0.350000  0.700000  0.550000
Nb1695  Nb  0.375000  0.725000  0.575000
W1738  W  0.400000  0.700000  0.550000
Nb1696  Nb  0.425000  0.725000  0.575000
W1739  W  0.450000  0.700000  0.550000
Mo1720  Mo  0.475000  0.725000  0.575000
Mo1721  Mo  -0.000000  0.750000  0.550000
Mo1722  Mo  0.025000  0.775000  0.575000
Nb1697  Nb  0.050000  0.750000  0.550000
Nb1698  Nb  0.075000  0.775000  0.575000
Mo1723  Mo  0.100000  0.750000  0.550000
Ta1706  Ta  0.125000  0.775000  0.575000
Nb1699  Nb  0.150000  0.750000  0.550000
Mo1724  Mo  0.175000  0.775000  0.575000
Mo1725  Mo  0.200000  0.750000  0.550000
Mo1726  Mo  0.225000  0.775000  0.575000
Mo1727  Mo  0.250000  0.750000  0.550000
Mo1728  Mo  0.275000  0.775000  0.575000
W1740  W  0.300000  0.750000  0.550000
Mo1729  Mo  0.325000  0.775000  0.575000
W1741  W  0.350000  0.750000  0.550000
W1742  W  0.375000  0.775000  0.575000
W1743  W  0.400000  0.750000  0.550000
W1744  W  0.425000  0.775000  0.575000
Mo1730  Mo  0.450000  0.750000  0.550000
W1745  W  0.475000  0.775000  0.575000
Nb1700  Nb  -0.000000  0.800000  0.550000
Mo1731  Mo  0.025000  0.825000  0.575000
Nb1701  Nb  0.050000  0.800000  0.550000
Ta1707  Ta  0.075000  0.825000  0.575000
Nb1702  Nb  0.100000  0.800000  0.550000
Ta1708  Ta  0.125000  0.825000  0.575000
Ta1709  Ta  0.150000  0.800000  0.550000
W1746  W  0.175000  0.825000  0.575000
Ta1710  Ta  0.200000  0.800000  0.550000
Ta1711  Ta  0.225000  0.825000  0.575000
Nb1703  Nb  0.250000  0.800000  0.550000
Ta1712  Ta  0.275000  0.825000  0.575000
W1747  W  0.300000  0.800000  0.550000
W1748  W  0.325000  0.825000  0.575000
Nb1704  Nb  0.350000  0.800000  0.550000
Mo1732  Mo  0.375000  0.825000  0.575000
W1749  W  0.400000  0.800000  0.550000
Mo1733  Mo  0.425000  0.825000  0.575000
W1750  W  0.450000  0.800000  0.550000
Mo1734  Mo  0.475000  0.825000  0.575000
W1751  W  -0.000000  0.850000  0.550000
Ta1713  Ta  0.025000  0.875000  0.575000
Ta1714  Ta  0.050000  0.850000  0.550000
Ta1715  Ta  0.075000  0.875000  0.575000
Mo1735  Mo  0.100000  0.850000  0.550000
W1752  W  0.125000  0.875000  0.575000
W1753  W  0.150000  0.850000  0.550000
W1754  W  0.175000  0.875000  0.575000
Nb1705  Nb  0.200000  0.850000  0.550000
Ta1716  Ta  0.225000  0.875000  0.575000
Nb1706  Nb  0.250000  0.850000  0.550000
Ta1717  Ta  0.275000  0.875000  0.575000
Mo1736  Mo  0.300000  0.850000  0.550000
Mo1737  Mo  0.325000  0.875000  0.575000
Nb1707  Nb  0.350000  0.850000  0.550000
Ta1718  Ta  0.375000  0.875000  0.575000
Nb1708  Nb  0.400000  0.850000  0.550000
Ta1719  Ta  0.425000  0.875000  0.575000
W1755  W  0.450000  0.850000  0.550000
Ta1720  Ta  0.475000  0.875000  0.575000
Ta1721  Ta  -0.000000  0.900000  0.550000
Nb1709  Nb  0.025000  0.925000  0.575000
Mo1738  Mo  0.050000  0.900000  0.550000
W1756  W  0.075000  0.925000  0.575000
Mo1739  Mo  0.100000  0.900000  0.550000
Nb1710  Nb  0.125000  0.925000  0.575000
Ta1722  Ta  0.150000  0.900000  0.550000
Nb1711  Nb  0.175000  0.925000  0.575000
Ta1723  Ta  0.200000  0.900000  0.550000
Nb1712  Nb  0.225000  0.925000  0.575000
W1757  W  0.250000  0.900000  0.550000
Ta1724  Ta  0.275000  0.925000  0.575000
Nb1713  Nb  0.300000  0.900000  0.550000
Ta1725  Ta  0.325000  0.925000  0.575000
Nb1714  Nb  0.350000  0.900000  0.550000
Nb1715  Nb  0.375000  0.925000  0.575000
Mo1740  Mo  0.400000  0.900000  0.550000
W1758  W  0.425000  0.925000  0.575000
Nb1716  Nb  0.450000  0.900000  0.550000
Mo1741  Mo  0.475000  0.925000  0.575000
Mo1742  Mo  -0.000000  0.950000  0.550000
Mo1743  Mo  0.025000  0.975000  0.575000
Ta1726  Ta  0.050000  0.950000  0.550000
Ta1727  Ta  0.075000  0.975000  0.575000
W1759  W  0.100000  0.950000  0.550000
Nb1717  Nb  0.125000  0.975000  0.575000
W1760  W  0.150000  0.950000  0.550000
Nb1718  Nb  0.175000  0.975000  0.575000
Mo1744  Mo  0.200000  0.950000  0.550000
Nb1719  Nb  0.225000  0.975000  0.575000
Ta1728  Ta  0.250000  0.950000  0.550000
Nb1720  Nb  0.275000  0.975000  0.575000
Mo1745  Mo  0.300000  0.950000  0.550000
Ta1729  Ta  0.325000  0.975000  0.575000
Nb1721  Nb  0.350000  0.950000  0.550000
Mo1746  Mo  0.375000  0.975000  0.575000
Nb1722  Nb  0.400000  0.950000  0.550000
W1761  W  0.425000  0.975000  0.575000
Mo1747  Mo  0.450000  0.950000  0.550000
W1762  W  0.475000  0.975000  0.575000
Nb1723  Nb  0.025000  0.675000  0.625000
Ta1730  Ta  0.075000  0.675000  0.625000
Nb1724  Nb  0.125000  0.675000  0.625000
Mo1748  Mo  0.175000  0.675000  0.625000
Nb1725  Nb  0.225000  0.675000  0.625000
Nb1726  Nb  0.275000  0.675000  0.625000
Nb1727  Nb  0.325000  0.675000  0.625000
Mo1749  Mo  0.375000  0.675000  0.625000
Nb1728  Nb  0.425000  0.675000  0.625000
Ta1731  Ta  0.475000  0.675000  0.625000
Ta1732  Ta  -0.000000  0.700000  0.600000
Nb1729  Nb  0.025000  0.725000  0.625000
Nb1730  Nb  0.050000  0.700000  0.600000
Nb1731  Nb  0.075000  0.725000  0.625000
Mo1750  Mo  0.100000  0.700000  0.600000
Nb1732  Nb  0.125000  0.725000  0.625000
W1763  W  0.150000  0.700000  0.600000
Ta1733  Ta  0.175000  0.725000  0.625000
Mo1751  Mo  0.200000  0.700000  0.600000
Mo1752  Mo  0.225000  0.725000  0.625000
Mo1753  Mo  0.250000  0.700000  0.600000
Mo1754  Mo  0.275000  0.725000  0.625000
Mo1755  Mo  0.300000  0.700000  0.600000
W1764  W  0.325000  0.725000  0.625000
W1765  W  0.350000  0.700000  0.600000
Mo1756  Mo  0.375000  0.725000  0.625000
Ta1734  Ta  0.400000  0.700000  0.600000
Mo1757  Mo  0.425000  0.725000  0.625000
Nb1733  Nb  0.450000  0.700000  0.600000
Mo1758  Mo  0.475000  0.725000  0.625000
Mo1759  Mo  -0.000000  0.750000  0.600000
W1766  W  0.025000  0.775000  0.625000
W1767  W  0.050000  0.750000  0.600000
Mo1760  Mo  0.075000  0.775000  0.625000
Nb1734  Nb  0.100000  0.750000  0.600000
Mo1761  Mo  0.125000  0.775000  0.625000
W1768  W  0.150000  0.750000  0.600000
Ta1735  Ta  0.175000  0.775000  0.625000
W1769  W  0.200000  0.750000  0.600000
Ta1736  Ta  0.225000  0.775000  0.625000
Ta1737  Ta  0.250000  0.750000  0.600000
Nb1735  Nb  0.275000  0.775000  0.625000
W1770  W  0.300000  0.750000  0.600000
Mo1762  Mo  0.325000  0.775000  0.625000
Mo1763  Mo  0.350000  0.750000  0.600000
W1771  W  0.375000  0.775000  0.625000
Nb1736  Nb  0.400000  0.750000  0.600000
Ta1738  Ta  0.425000  0.775000  0.625000
Ta1739  Ta  0.450000  0.750000  0.600000
Nb1737  Nb  0.475000  0.775000  0.625000
W1772  W  -0.000000  0.800000  0.600000
Mo1764  Mo  0.025000  0.825000  0.625000
Ta1740  Ta  0.050000  0.800000  0.600000
W1773  W  0.075000  0.825000  0.625000
Mo1765  Mo  0.100000  0.800000  0.600000
Nb1738  Nb  0.125000  0.825000  0.625000
Ta1741  Ta  0.150000  0.800000  0.600000
Mo1766  Mo  0.175000  0.825000  0.625000
Ta1742  Ta  0.200000  0.800000  0.600000
W1774  W  0.225000  0.825000  0.625000
W1775  W  0.250000  0.800000  0.600000
Ta1743  Ta  0.275000  0.825000  0.625000
W1776  W  0.300000  0.800000  0.600000
Ta1744  Ta  0.325000  0.825000  0.625000
Nb1739  Nb  0.350000  0.800000  0.600000
Nb1740  Nb  0.375000  0.825000  0.625000
Mo1767  Mo  0.400000  0.800000  0.600000
Ta1745  Ta  0.425000  0.825000  0.625000
Mo1768  Mo  0.450000  0.800000  0.600000
W1777  W  0.475000  0.825000  0.625000
Nb1741  Nb  -0.000000  0.850000  0.600000
Nb1742  Nb  0.025000  0.875000  0.625000
Ta1746  Ta  0.050000  0.850000  0.600000
Mo1769  Mo  0.075000  0.875000  0.625000
Ta1747  Ta  0.100000  0.850000  0.600000
Ta1748  Ta  0.125000  0.875000  0.625000
Ta1749  Ta  0.150000  0.850000  0.600000
Ta1750  Ta  0.175000  0.875000  0.625000
Ta1751  Ta  0.200000  0.850000  0.600000
Ta1752  Ta  0.225000  0.875000  0.625000
Mo1770  Mo  0.250000  0.850000  0.600000
W1778  W  0.275000  0.875000  0.625000
W1779  W  0.300000  0.850000  0.600000
Ta1753  Ta  0.325000  0.875000  0.625000
W1780  W  0.350000  0.850000  0.600000
W1781  W  0.375000  0.875000  0.625000
W1782  W  0.400000  0.850000  0.600000
W1783  W  0.425000  0.875000  0.625000
Ta1754  Ta  0.450000  0.850000  0.600000
Ta1755  Ta  0.475000  0.875000  0.625000
W1784  W  -0.000000  0.900000  0.600000
W1785  W  0.025000  0.925000  0.625000
Ta1756  Ta  0.050000  0.900000  0.600000
Ta1757  Ta  0.075000  0.925000  0.625000
W1786  W  0.100000  0.900000  0.600000
Ta1758  Ta  0.125000  0.925000  0.625000
W1787  W  0.150000  0.900000  0.600000
W1788  W  0.175000  0.925000  0.625000
W1789  W  0.200000  0.900000  0.600000
Nb1743  Nb  0.225000  0.925000  0.625000
Ta1759  Ta  0.250000  0.900000  0.600000
Nb1744  Nb  0.275000  0.925000  0.625000
Nb1745  Nb  0.300000  0.900000  0.600000
Nb1746  Nb  0.325000  0.925000  0.625000
W1790  W  0.350000  0.900000  0.600000
Nb1747  Nb  0.375000  0.925000  0.625000
Nb1748  Nb  0.400000  0.900000  0.600000
Mo1771  Mo  0.425000  0.925000  0.625000
W1791  W  0.450000  0.900000  0.600000
Ta1760  Ta  0.475000  0.925000  0.625000
Nb1749  Nb  -0.000000  0.950000  0.600000
Nb1750  Nb  0.025000  0.975000  0.625000
Nb1751  Nb  0.050000  0.950000  0.600000
Mo1772  Mo  0.075000  0.975000  0.625000
Nb1752  Nb  0.100000  0.950000  0.600000
Mo1773  Mo  0.125000  0.975000  0.625000
Mo1774  Mo  0.150000  0.950000  0.600000
Ta1761  Ta  0.175000  0.975000  0.625000
Ta1762  Ta  0.200000  0.950000  0.600000
Nb1753  Nb  0.225000  0.975000  0.625000
Ta1763  Ta  0.250000  0.950000  0.600000
Ta1764  Ta  0.275000  0.975000  0.625000
Mo1775  Mo  0.300000  0.950000  0.600000
Mo1776  Mo  0.325000  0.975000  0.625000
W1792  W  0.350000  0.950000  0.600000
Ta1765  Ta  0.375000  0.975000  0.625000
Ta1766  Ta  0.400000  0.950000  0.600000
Ta1767  Ta  0.425000  0.975000  0.625000
Ta1768  Ta  0.450000  0.950000  0.600000
Nb1754  Nb  0.475000  0.975000  0.625000
Mo1777  Mo  0.025000  0.675000  0.675000
Nb1755  Nb  0.075000  0.675000  0.675000
Nb1756  Nb  0.125000  0.675000  0.675000
Mo1778  Mo  0.175000  0.675000  0.675000
Mo1779  Mo  0.225000  0.675000  0.675000
Ta1769  Ta  0.275000  0.675000  0.675000
Ta1770  Ta  0.325000  0.675000  0.675000
Ta1771  Ta  0.375000  0.675000  0.675000
Mo1780  Mo  0.425000  0.675000  0.675000
Ta1772  Ta  0.475000  0.675000  0.675000
Nb1757  Nb  -0.000000  0.700000  0.650000
Nb1758  Nb  0.025000  0.725000  0.675000
Nb1759  Nb  0.050000  0.700000  0.650000
Nb1760  Nb  0.075000  0.725000  0.675000
W1793  W  0.100000  0.700000  0.650000
Ta1773  Ta  0.125000  0.725000  0.675000
Ta1774  Ta  0.150000  0.700000  0.650000
Nb1761  Nb  0.175000  0.725000  0.675000
Nb1762  Nb  0.200000  0.700000  0.650000
W1794  W  0.225000  0.725000  0.675000
Nb1763  Nb  0.250000  0.700000  0.650000
Mo1781  Mo  0.275000  0.725000  0.675000
W1795  W  0.300000  0.700000  0.650000
Nb1764  Nb  0.325000  0.725000  0.675000
W1796  W  0.350000  0.700000  0.650000
W1797  W  0.375000  0.725000  0.675000
W1798  W  0.400000  0.700000  0.650000
W1799  W  0.425000  0.725000  0.675000
Ta1775  Ta  0.450000  0.700000  0.650000
Nb1765  Nb  0.475000  0.725000  0.675000
W1800  W  -0.000000  0.750000  0.650000
Mo1782  Mo  0.025000  0.775000  0.675000
Nb1766  Nb  0.050000  0.750000  0.650000
Nb1767  Nb  0.075000  0.775000  0.675000
Ta1776  Ta  0.100000  0.750000  0.650000
Mo1783  Mo  0.125000  0.775000  0.675000
Ta1777  Ta  0.150000  0.750000  0.650000
Mo1784  Mo  0.175000  0.775000  0.675000
W1801  W  0.200000  0.750000  0.650000
Ta1778  Ta  0.225000  0.775000  0.675000
W1802  W  0.250000  0.750000  0.650000
W1803  W  0.275000  0.775000  0.675000
Nb1768  Nb  0.300000  0.750000  0.650000
Nb1769  Nb  0.325000  0.775000  0.675000
W1804  W  0.350000  0.750000  0.650000
Mo1785  Mo  0.375000  0.775000  0.675000
Nb1770  Nb  0.400000  0.750000  0.650000
Mo1786  Mo  0.425000  0.775000  0.675000
Nb1771  Nb  0.450000  0.750000  0.650000
Nb1772  Nb  0.475000  0.775000  0.675000
Ta1779  Ta  -0.000000  0.800000  0.650000
Nb1773  Nb  0.025000  0.825000  0.675000
Nb1774  Nb  0.050000  0.800000  0.650000
Nb1775  Nb  0.075000  0.825000  0.675000
Mo1787  Mo  0.100000  0.800000  0.650000
Nb1776  Nb  0.125000  0.825000  0.675000
Nb1777  Nb  0.150000  0.800000  0.650000
Ta1780  Ta  0.175000  0.825000  0.675000
Ta1781  Ta  0.200000  0.800000  0.650000
Nb1778  Nb  0.225000  0.825000  0.675000
Ta1782  Ta  0.250000  0.800000  0.650000
Mo1788  Mo  0.275000  0.825000  0.675000
W1805  W  0.300000  0.800000  0.650000
Ta1783  Ta  0.325000  0.825000  0.675000
W1806  W  0.350000  0.800000  0.650000
Mo1789  Mo  0.375000  0.825000  0.675000
Ta1784  Ta  0.400000  0.800000  0.650000
Nb1779  Nb  0.425000  0.825000  0.675000
Mo1790  Mo  0.450000  0.800000  0.650000
Mo1791  Mo  0.475000  0.825000  0.675000
Mo1792  Mo  -0.000000  0.850000  0.650000
Nb1780  Nb  0.025000  0.875000  0.675000
W1807  W  0.050000  0.850000  0.650000
Ta1785  Ta  0.075000  0.875000  0.675000
Mo1793  Mo  0.100000  0.850000  0.650000
Nb1781  Nb  0.125000  0.875000  0.675000
Ta1786  Ta  0.150000  0.850000  0.650000
Nb1782  Nb  0.175000  0.875000  0.675000
Mo1794  Mo  0.200000  0.850000  0.650000
Mo1795  Mo  0.225000  0.875000  0.675000
Ta1787  Ta  0.250000  0.850000  0.650000
W1808  W  0.275000  0.875000  0.675000
W1809  W  0.300000  0.850000  0.650000
W1810  W  0.325000  0.875000  0.675000
Mo1796  Mo  0.350000  0.850000  0.650000
Nb1783  Nb  0.375000  0.875000  0.675000
Mo1797  Mo  0.400000  0.850000  0.650000
Nb1784  Nb  0.425000  0.875000  0.675000
Mo1798  Mo  0.450000  0.850000  0.650000
Nb1785  Nb  0.475000  0.875000  0.675000
Mo1799  Mo  -0.000000  0.900000  0.650000
Ta1788  Ta  0.025000  0.925000  0.675000
Mo1800  Mo  0.050000  0.900000  0.650000
W1811  W  0.075000  0.925000  0.675000
Mo1801  Mo  0.100000  0.900000  0.650000
Nb1786  Nb  0.125000  0.925000  0.675000
Nb1787  Nb  0.150000  0.900000  0.650000
Mo1802  Mo  0.175000  0.925000  0.675000
Mo1803  Mo  0.200000  0.900000  0.650000
Mo1804  Mo  0.225000  0.925000  0.675000
Mo1805  Mo  0.250000  0.900000  0.650000
Ta1789  Ta  0.275000  0.925000  0.675000
W1812  W  0.300000  0.900000  0.650000
Nb1788  Nb  0.325000  0.925000  0.675000
Ta1790  Ta  0.350000  0.900000  0.650000
Ta1791  Ta  0.375000  0.925000  0.675000
W1813  W  0.400000  0.900000  0.650000
Ta1792  Ta  0.425000  0.925000  0.675000
Mo1806  Mo  0.450000  0.900000  0.650000
Nb1789  Nb  0.475000  0.925000  0.675000
W1814  W  -0.000000  0.950000  0.650000
Nb1790  Nb  0.025000  0.975000  0.675000
Nb1791  Nb  0.050000  0.950000  0.650000
W1815  W  0.075000  0.975000  0.675000
Ta1793  Ta  0.100000  0.950000  0.650000
W1816  W  0.125000  0.975000  0.675000
Nb1792  Nb  0.150000  0.950000  0.650000
Mo1807  Mo  0.175000  0.975000  0.675000
Mo1808  Mo  0.200000  0.950000  0.650000
Nb1793  Nb  0.225000  0.975000  0.675000
W1817  W  0.250000  0.950000  0.650000
Mo1809  Mo  0.275000  0.975000  0.675000
Nb1794  Nb  0.300000  0.950000  0.650000
Ta1794  Ta  0.325000  0.975000  0.675000
W1818  W  0.350000  0.950000  0.650000
Mo1810  Mo  0.375000  0.975000  0.675000
W1819  W  0.400000  0.950000  0.650000
Nb1795  Nb  0.425000  0.975000  0.675000
Nb1796  Nb  0.450000  0.950000  0.650000
Nb1797  Nb  0.475000  0.975000  0.675000
Mo1811  Mo  0.025000  0.675000  0.725000
Mo1812  Mo  0.075000  0.675000  0.725000
Nb1798  Nb  0.125000  0.675000  0.725000
Mo1813  Mo  0.175000  0.675000  0.725000
Nb1799  Nb  0.225000  0.675000  0.725000
Nb1800  Nb  0.275000  0.675000  0.725000
W1820  W  0.325000  0.675000  0.725000
Mo1814  Mo  0.375000  0.675000  0.725000
Mo1815  Mo  0.425000  0.675000  0.725000
Ta1795  Ta  0.475000  0.675000  0.725000
Nb1801  Nb  -0.000000  0.700000  0.700000
W1821  W  0.025000  0.725000  0.725000
Mo1816  Mo  0.050000  0.700000  0.700000
W1822  W  0.075000  0.725000  0.725000
W1823  W  0.100000  0.700000  0.700000
W1824  W  0.125000  0.725000  0.725000
Ta1796  Ta  0.150000  0.700000  0.700000
Mo1817  Mo  0.175000  0.725000  0.725000
Mo1818  Mo  0.200000  0.700000  0.700000
Nb1802  Nb  0.225000  0.725000  0.725000
Mo1819  Mo  0.250000  0.700000  0.700000
Ta1797  Ta  0.275000  0.725000  0.725000
Ta1798  Ta  0.300000  0.700000  0.700000
W1825  W  0.325000  0.725000  0.725000
Mo1820  Mo  0.350000  0.700000  0.700000
Ta1799  Ta  0.375000  0.725000  0.725000
Ta1800  Ta  0.400000  0.700000  0.700000
Mo1821  Mo  0.425000  0.725000  0.725000
Mo1822  Mo  0.450000  0.700000  0.700000
Ta1801  Ta  0.475000  0.725000  0.725000
Ta1802  Ta  -0.000000  0.750000  0.700000
W1826  W  0.025000  0.775000  0.725000
Ta1803  Ta  0.050000  0.750000  0.700000
Ta1804  Ta  0.075000  0.775000  0.725000
Mo1823  Mo  0.100000  0.750000  0.700000
Mo1824  Mo  0.125000  0.775000  0.725000
Mo1825  Mo  0.150000  0.750000  0.700000
Nb1803  Nb  0.175000  0.775000  0.725000
Mo1826  Mo  0.200000  0.750000  0.700000
Mo1827  Mo  0.225000  0.775000  0.725000
Mo1828  Mo  0.250000  0.750000  0.700000
W1827  W  0.275000  0.775000  0.725000
Mo1829  Mo  0.300000  0.750000  0.700000
W1828  W  0.325000  0.775000  0.725000
Ta1805  Ta  0.350000  0.750000  0.700000
Nb1804  Nb  0.375000  0.775000  0.725000
Mo1830  Mo  0.400000  0.750000  0.700000
Ta1806  Ta  0.425000  0.775000  0.725000
Ta1807  Ta  0.450000  0.750000  0.700000
W1829  W  0.475000  0.775000  0.725000
W1830  W  -0.000000  0.800000  0.700000
Ta1808  Ta  0.025000  0.825000  0.725000
Ta1809  Ta  0.050000  0.800000  0.700000
Ta1810  Ta  0.075000  0.825000  0.725000
Nb1805  Nb  0.100000  0.800000  0.700000
Ta1811  Ta  0.125000  0.825000  0.725000
Ta1812  Ta  0.150000  0.800000  0.700000
Nb1806  Nb  0.175000  0.825000  0.725000
Ta1813  Ta  0.200000  0.800000  0.700000
Nb1807  Nb  0.225000  0.825000  0.725000
Nb1808  Nb  0.250000  0.800000  0.700000
Nb1809  Nb  0.275000  0.825000  0.725000
Ta1814  Ta  0.300000  0.800000  0.700000
W1831  W  0.325000  0.825000  0.725000
W1832  W  0.350000  0.800000  0.700000
Ta1815  Ta  0.375000  0.825000  0.725000
Ta1816  Ta  0.400000  0.800000  0.700000
Ta1817  Ta  0.425000  0.825000  0.725000
W1833  W  0.450000  0.800000  0.700000
Nb1810  Nb  0.475000  0.825000  0.725000
W1834  W  -0.000000  0.850000  0.700000
Nb1811  Nb  0.025000  0.875000  0.725000
Nb1812  Nb  0.050000  0.850000  0.700000
Nb1813  Nb  0.075000  0.875000  0.725000
Ta1818  Ta  0.100000  0.850000  0.700000
Ta1819  Ta  0.125000  0.875000  0.725000
Nb1814  Nb  0.150000  0.850000  0.700000
Ta1820  Ta  0.175000  0.875000  0.725000
Ta1821  Ta  0.200000  0.850000  0.700000
Nb1815  Nb  0.225000  0.875000  0.725000
Nb1816  Nb  0.250000  0.850000  0.700000
W1835  W  0.275000  0.875000  0.725000
Ta1822  Ta  0.300000  0.850000  0.700000
Nb1817  Nb  0.325000  0.875000  0.725000
Ta1823  Ta  0.350000  0.850000  0.700000
Ta1824  Ta  0.375000  0.875000  0.725000
Nb1818  Nb  0.400000  0.850000  0.700000
W1836  W  0.425000  0.875000  0.725000
Ta1825  Ta  0.450000  0.850000  0.700000
Nb1819  Nb  0.475000  0.875000  0.725000
Nb1820  Nb  -0.000000  0.900000  0.700000
Mo1831  Mo  0.025000  0.925000  0.725000
Nb1821  Nb  0.050000  0.900000  0.700000
Ta1826  Ta  0.075000  0.925000  0.725000
Nb1822  Nb  0.100000  0.900000  0.700000
W1837  W  0.125000  0.925000  0.725000
Mo1832  Mo  0.150000  0.900000  0.700000
W1838  W  0.175000  0.925000  0.725000
Ta1827  Ta  0.200000  0.900000  0.700000
W1839  W  0.225000  0.925000  0.725000
W1840  W  0.250000  0.900000  0.700000
W1841  W  0.275000  0.925000  0.725000
Ta1828  Ta  0.300000  0.900000  0.700000
W1842  W  0.325000  0.925000  0.725000
Mo1833  Mo  0.350000  0.900000  0.700000
Nb1823  Nb  0.375000  0.925000  0.725000
Nb1824  Nb  0.400000  0.900000  0.700000
Nb1825  Nb  0.425000  0.925000  0.725000
W1843  W  0.450000  0.900000  0.700000
Ta1829  Ta  0.475000  0.925000  0.725000
Nb1826  Nb  -0.000000  0.950000  0.700000
W1844  W  0.025000  0.975000  0.725000
Nb1827  Nb  0.050000  0.950000  0.700000
Nb1828  Nb  0.075000  0.975000  0.725000
Mo1834  Mo  0.100000  0.950000  0.700000
Nb1829  Nb  0.125000  0.975000  0.725000
Nb1830  Nb  0.150000  0.950000  0.700000
W1845  W  0.175000  0.975000  0.725000
Mo1835  Mo  0.200000  0.950000  0.700000
Nb1831  Nb  0.225000  0.975000  0.725000
Ta1830  Ta  0.250000  0.950000  0.700000
Ta1831  Ta  0.275000  0.975000  0.725000
Ta1832  Ta  0.300000  0.950000  0.700000
Mo1836  Mo  0.325000  0.975000  0.725000
Mo1837  Mo  0.350000  0.950000  0.700000
Nb1832  Nb  0.375000  0.975000  0.725000
Ta1833  Ta  0.400000  0.950000  0.700000
W1846  W  0.425000  0.975000  0.725000
Ta1834  Ta  0.450000  0.950000  0.700000
W1847  W  0.475000  0.975000  0.725000
Nb1833  Nb  0.025000  0.675000  0.775000
Mo1838  Mo  0.075000  0.675000  0.775000
Ta1835  Ta  0.125000  0.675000  0.775000
W1848  W  0.175000  0.675000  0.775000
Mo1839  Mo  0.225000  0.675000  0.775000
Nb1834  Nb  0.275000  0.675000  0.775000
W1849  W  0.325000  0.675000  0.775000
W1850  W  0.375000  0.675000  0.775000
Ta1836  Ta  0.425000  0.675000  0.775000
Mo1840  Mo  0.475000  0.675000  0.775000
Ta1837  Ta  -0.000000  0.700000  0.750000
W1851  W  0.025000  0.725000  0.775000
W1852  W  0.050000  0.700000  0.750000
Mo1841  Mo  0.075000  0.725000  0.775000
Nb1835  Nb  0.100000  0.700000  0.750000
W1853  W  0.125000  0.725000  0.775000
Ta1838  Ta  0.150000  0.700000  0.750000
Mo1842  Mo  0.175000  0.725000  0.775000
W1854  W  0.200000  0.700000  0.750000
W1855  W  0.225000  0.725000  0.775000
W1856  W  0.250000  0.700000  0.750000
Mo1843  Mo  0.275000  0.725000  0.775000
W1857  W  0.300000  0.700000  0.750000
Ta1839  Ta  0.325000  0.725000  0.775000
Nb1836  Nb  0.350000  0.700000  0.750000
Ta1840  Ta  0.375000  0.725000  0.775000
Mo1844  Mo  0.400000  0.700000  0.750000
W1858  W  0.425000  0.725000  0.775000
W1859  W  0.450000  0.700000  0.750000
W1860  W  0.475000  0.725000  0.775000
Nb1837  Nb  -0.000000  0.750000  0.750000
W1861  W  0.025000  0.775000  0.775000
W1862  W  0.050000  0.750000  0.750000
Ta1841  Ta  0.075000  0.775000  0.775000
Ta1842  Ta  0.100000  0.750000  0.750000
W1863  W  0.125000  0.775000  0.775000
Mo1845  Mo  0.150000  0.750000  0.750000
Mo1846  Mo  0.175000  0.775000  0.775000
Mo1847  Mo  0.200000  0.750000  0.750000
Ta1843  Ta  0.225000  0.775000  0.775000
W1864  W  0.250000  0.750000  0.750000
Nb1838  Nb  0.275000  0.775000  0.775000
Ta1844  Ta  0.300000  0.750000  0.750000
W1865  W  0.325000  0.775000  0.775000
Nb1839  Nb  0.350000  0.750000  0.750000
Ta1845  Ta  0.375000  0.775000  0.775000
Ta1846  Ta  0.400000  0.750000  0.750000
W1866  W  0.425000  0.775000  0.775000
Ta1847  Ta  0.450000  0.750000  0.750000
Ta1848  Ta  0.475000  0.775000  0.775000
Ta1849  Ta  -0.000000  0.800000  0.750000
W1867  W  0.025000  0.825000  0.775000
Ta1850  Ta  0.050000  0.800000  0.750000
Nb1840  Nb  0.075000  0.825000  0.775000
Nb1841  Nb  0.100000  0.800000  0.750000
Nb1842  Nb  0.125000  0.825000  0.775000
Ta1851  Ta  0.150000  0.800000  0.750000
Ta1852  Ta  0.175000  0.825000  0.775000
Ta1853  Ta  0.200000  0.800000  0.750000
Mo1848  Mo  0.225000  0.825000  0.775000
W1868  W  0.250000  0.800000  0.750000
Ta1854  Ta  0.275000  0.825000  0.775000
W1869  W  0.300000  0.800000  0.750000
Nb1843  Nb  0.325000  0.825000  0.775000
Mo1849  Mo  0.350000  0.800000  0.750000
Ta1855  Ta  0.375000  0.825000  0.775000
Ta1856  Ta  0.400000  0.800000  0.750000
Mo1850  Mo  0.425000  0.825000  0.775000
W1870  W  0.450000  0.800000  0.750000
Nb1844  Nb  0.475000  0.825000  0.775000
Nb1845  Nb  -0.000000  0.850000  0.750000
Ta1857  Ta  0.025000  0.875000  0.775000
Ta1858  Ta  0.050000  0.850000  0.750000
Ta1859  Ta  0.075000  0.875000  0.775000
W1871  W  0.100000  0.850000  0.750000
W1872  W  0.125000  0.875000  0.775000
W1873  W  0.150000  0.850000  0.750000
Ta1860  Ta  0.175000  0.875000  0.775000
Nb1846  Nb  0.200000  0.850000  0.750000
Ta1861  Ta  0.225000  0.875000  0.775000
Nb1847  Nb  0.250000  0.850000  0.750000
Nb1848  Nb  0.275000  0.875000  0.775000
Mo1851  Mo  0.300000  0.850000  0.750000
Ta1862  Ta  0.325000  0.875000  0.775000
Nb1849  Nb  0.350000  0.850000  0.750000
Nb1850  Nb  0.375000  0.875000  0.775000
Nb1851  Nb  0.400000  0.850000  0.750000
Ta1863  Ta  0.425000  0.875000  0.775000
W1874  W  0.450000  0.850000  0.750000
Mo1852  Mo  0.475000  0.875000  0.775000
Mo1853  Mo  -0.000000  0.900000  0.750000
W1875  W  0.025000  0.925000  0.775000
Nb1852  Nb  0.050000  0.900000  0.750000
Nb1853  Nb  0.075000  0.925000  0.775000
Nb1854  Nb  0.100000  0.900000  0.750000
Ta1864  Ta  0.125000  0.925000  0.775000
Ta1865  Ta  0.150000  0.900000  0.750000
Nb1855  Nb  0.175000  0.925000  0.775000
Mo1854  Mo  0.200000  0.900000  0.750000
Nb1856  Nb  0.225000  0.925000  0.775000
Nb1857  Nb  0.250000  0.900000  0.750000
Mo1855  Mo  0.275000  0.925000  0.775000
Mo1856  Mo  0.300000  0.900000  0.750000
Nb1858  Nb  0.325000  0.925000  0.775000
Nb1859  Nb  0.350000  0.900000  0.750000
W1876  W  0.375000  0.925000  0.775000
Nb1860  Nb  0.400000  0.900000  0.750000
Mo1857  Mo  0.425000  0.925000  0.775000
Mo1858  Mo  0.450000  0.900000  0.750000
Ta1866  Ta  0.475000  0.925000  0.775000
Ta1867  Ta  -0.000000  0.950000  0.750000
Nb1861  Nb  0.025000  0.975000  0.775000
Ta1868  Ta  0.050000  0.950000  0.750000
Nb1862  Nb  0.075000  0.975000  0.775000
Ta1869  Ta  0.100000  0.950000  0.750000
Nb1863  Nb  0.125000  0.975000  0.775000
Mo1859  Mo  0.150000  0.950000  0.750000
W1877  W  0.175000  0.975000  0.775000
Nb1864  Nb  0.200000  0.950000  0.750000
W1878  W  0.225000  0.975000  0.775000
Ta1870  Ta  0.250000  0.950000  0.750000
Mo1860  Mo  0.275000  0.975000  0.775000
Mo1861  Mo  0.300000  0.950000  0.750000
Mo1862  Mo  0.325000  0.975000  0.775000
Ta1871  Ta  0.350000  0.950000  0.750000
Nb1865  Nb  0.375000  0.975000  0.775000
Nb1866  Nb  0.400000  0.950000  0.750000
Nb1867  Nb  0.425000  0.975000  0.775000
Mo1863  Mo  0.450000  0.950000  0.750000
Nb1868  Nb  0.475000  0.975000  0.775000
Mo1864  Mo  0.025000  0.675000  0.825000
Nb1869  Nb  0.075000  0.675000  0.825000
Mo1865  Mo  0.125000  0.675000  0.825000
W1879  W  0.175000  0.675000  0.825000
W1880  W  0.225000  0.675000  0.825000
Ta1872  Ta  0.275000  0.675000  0.825000
Mo1866  Mo  0.325000  0.675000  0.825000
Ta1873  Ta  0.375000  0.675000  0.825000
W1881  W  0.425000  0.675000  0.825000
Ta1874  Ta  0.475000  0.675000  0.825000
Mo1867  Mo  -0.000000  0.700000  0.800000
Nb1870  Nb  0.025000  0.725000  0.825000
Nb1871  Nb  0.050000  0.700000  0.800000
Nb1872  Nb  0.075000  0.725000  0.825000
Nb1873  Nb  0.100000  0.700000  0.800000
W1882  W  0.125000  0.725000  0.825000
Mo1868  Mo  0.150000  0.700000  0.800000
Nb1874  Nb  0.175000  0.725000  0.825000
Mo1869  Mo  0.200000  0.700000  0.800000
W1883  W  0.225000  0.725000  0.825000
W1884  W  0.250000  0.700000  0.800000
Ta1875  Ta  0.275000  0.725000  0.825000
Mo1870  Mo  0.300000  0.700000  0.800000
Nb1875  Nb  0.325000  0.725000  0.825000
Nb1876  Nb  0.350000  0.700000  0.800000
Mo1871  Mo  0.375000  0.725000  0.825000
Nb1877  Nb  0.400000  0.700000  0.800000
Mo1872  Mo  0.425000  0.725000  0.825000
Mo1873  Mo  0.450000  0.700000  0.800000
Nb1878  Nb  0.475000  0.725000  0.825000
Mo1874  Mo  -0.000000  0.750000  0.800000
Nb1879  Nb  0.025000  0.775000  0.825000
W1885  W  0.050000  0.750000  0.800000
Ta1876  Ta  0.075000  0.775000  0.825000
W1886  W  0.100000  0.750000  0.800000
W1887  W  0.125000  0.775000  0.825000
Ta1877  Ta  0.150000  0.750000  0.800000
Ta1878  Ta  0.175000  0.775000  0.825000
Mo1875  Mo  0.200000  0.750000  0.800000
Mo1876  Mo  0.225000  0.775000  0.825000
Mo1877  Mo  0.250000  0.750000  0.800000
Mo1878  Mo  0.275000  0.775000  0.825000
Ta1879  Ta  0.300000  0.750000  0.800000
Mo1879  Mo  0.325000  0.775000  0.825000
W1888  W  0.350000  0.750000  0.800000
Mo1880  Mo  0.375000  0.775000  0.825000
Nb1880  Nb  0.400000  0.750000  0.800000
Mo1881  Mo  0.425000  0.775000  0.825000
Nb1881  Nb  0.450000  0.750000  0.800000
Nb1882  Nb  0.475000  0.775000  0.825000
Mo1882  Mo  -0.000000  0.800000  0.800000
Mo1883  Mo  0.025000  0.825000  0.825000
Nb1883  Nb  0.050000  0.800000  0.800000
Mo1884  Mo  0.075000  0.825000  0.825000
Nb1884  Nb  0.100000  0.800000  0.800000
W1889  W  0.125000  0.825000  0.825000
W1890  W  0.150000  0.800000  0.800000
Nb1885  Nb  0.175000  0.825000  0.825000
Ta1880  Ta  0.200000  0.800000  0.800000
W1891  W  0.225000  0.825000  0.825000
W1892  W  0.250000  0.800000  0.800000
Nb1886  Nb  0.275000  0.825000  0.825000
Mo1885  Mo  0.300000  0.800000  0.800000
Nb1887  Nb  0.325000  0.825000  0.825000
Ta1881  Ta  0.350000  0.800000  0.800000
Mo1886  Mo  0.375000  0.825000  0.825000
Mo1887  Mo  0.400000  0.800000  0.800000
Mo1888  Mo  0.425000  0.825000  0.825000
Mo1889  Mo  0.450000  0.800000  0.800000
Ta1882  Ta  0.475000  0.825000  0.825000
Mo1890  Mo  -0.000000  0.850000  0.800000
Nb1888  Nb  0.025000  0.875000  0.825000
W1893  W  0.050000  0.850000  0.800000
Mo1891  Mo  0.075000  0.875000  0.825000
Mo1892  Mo  0.100000  0.850000  0.800000
W1894  W  0.125000  0.875000  0.825000
Nb1889  Nb  0.150000  0.850000  0.800000
W1895  W  0.175000  0.875000  0.825000
Mo1893  Mo  0.200000  0.850000  0.800000
Mo1894  Mo  0.225000  0.875000  0.825000
Ta1883  Ta  0.250000  0.850000  0.800000
Nb1890  Nb  0.275000  0.875000  0.825000
Ta1884  Ta  0.300000  0.850000  0.800000
Ta1885  Ta  0.325000  0.875000  0.825000
Nb1891  Nb  0.350000  0.850000  0.800000
W1896  W  0.375000  0.875000  0.825000
Nb1892  Nb  0.400000  0.850000  0.800000
Mo1895  Mo  0.425000  0.875000  0.825000
W1897  W  0.450000  0.850000  0.800000
W1898  W  0.475000  0.875000  0.825000
Nb1893  Nb  -0.000000  0.900000  0.800000
Mo1896  Mo  0.025000  0.925000  0.825000
Nb1894  Nb  0.050000  0.900000  0.800000
Mo1897  Mo  0.075000  0.925000  0.825000
Mo1898  Mo  0.100000  0.900000  0.800000
Mo1899  Mo  0.125000  0.925000  0.825000
Mo1900  Mo  0.150000  0.900000  0.800000
Mo1901  Mo  0.175000  0.925000  0.825000
Nb1895  Nb  0.200000  0.900000  0.800000
Nb1896  Nb  0.225000  0.925000  0.825000
Nb1897  Nb  0.250000  0.900000  0.800000
Mo1902  Mo  0.275000  0.925000  0.825000
Ta1886  Ta  0.300000  0.900000  0.800000
Ta1887  Ta  0.325000  0.925000  0.825000
Nb1898  Nb  0.350000  0.900000  0.800000
W1899  W  0.375000  0.925000  0.825000
Ta1888  Ta  0.400000  0.900000  0.800000
W1900  W  0.425000  0.925000  0.825000
Mo1903  Mo  0.450000  0.900000  0.800000
W1901  W  0.475000  0.925000  0.825000
Nb1899  Nb  -0.000000  0.950000  0.800000
Mo1904  Mo  0.025000  0.975000  0.825000
Ta1889  Ta  0.050000  0.950000  0.800000
W1902  W  0.075000  0.975000  0.825000
Ta1890  Ta  0.100000  0.950000  0.800000
W1903  W  0.125000  0.975000  0.825000
Ta1891  Ta  0.150000  0.950000  0.800000
Nb1900  Nb  0.175000  0.975000  0.825000
Nb1901  Nb  0.200000  0.950000  0.800000
W1904  W  0.225000  0.975000  0.825000
Nb1902  Nb  0.250000  0.950000  0.800000
Mo1905  Mo  0.275000  0.975000  0.825000
Mo1906  Mo  0.300000  0.950000  0.800000
Mo1907  Mo  0.325000  0.975000  0.825000
Nb1903  Nb  0.350000  0.950000  0.800000
Ta1892  Ta  0.375000  0.975000  0.825000
Mo1908  Mo  0.400000  0.950000  0.800000
W1905  W  0.425000  0.975000  0.825000
Mo1909  Mo  0.450000  0.950000  0.800000
Nb1904  Nb  0.475000  0.975000  0.825000
W1906  W  0.025000  0.675000  0.875000
Ta1893  Ta  0.075000  0.675000  0.875000
Mo1910  Mo  0.125000  0.675000  0.875000
W1907  W  0.175000  0.675000  0.875000
Nb1905  Nb  0.225000  0.675000  0.875000
W1908  W  0.275000  0.675000  0.875000
W1909  W  0.325000  0.675000  0.875000
Ta1894  Ta  0.375000  0.675000  0.875000
Mo1911  Mo  0.425000  0.675000  0.875000
Ta1895  Ta  0.475000  0.675000  0.875000
Nb1906  Nb  -0.000000  0.700000  0.850000
W1910  W  0.025000  0.725000  0.875000
Mo1912  Mo  0.050000  0.700000  0.850000
Nb1907  Nb  0.075000  0.725000  0.875000
Ta1896  Ta  0.100000  0.700000  0.850000
Nb1908  Nb  0.125000  0.725000  0.875000
W1911  W  0.150000  0.700000  0.850000
Ta1897  Ta  0.175000  0.725000  0.875000
Ta1898  Ta  0.200000  0.700000  0.850000
W1912  W  0.225000  0.725000  0.875000
W1913  W  0.250000  0.700000  0.850000
Mo1913  Mo  0.275000  0.725000  0.875000
Ta1899  Ta  0.300000  0.700000  0.850000
Nb1909  Nb  0.325000  0.725000  0.875000
Mo1914  Mo  0.350000  0.700000  0.850000
Nb1910  Nb  0.375000  0.725000  0.875000
Ta1900  Ta  0.400000  0.700000  0.850000
Nb1911  Nb  0.425000  0.725000  0.875000
Ta1901  Ta  0.450000  0.700000  0.850000
Ta1902  Ta  0.475000  0.725000  0.875000
W1914  W  -0.000000  0.750000  0.850000
Mo1915  Mo  0.025000  0.775000  0.875000
W1915  W  0.050000  0.750000  0.850000
W1916  W  0.075000  0.775000  0.875000
Nb1912  Nb  0.100000  0.750000  0.850000
Mo1916  Mo  0.125000  0.775000  0.875000
Ta1903  Ta  0.150000  0.750000  0.850000
Ta1904  Ta  0.175000  0.775000  0.875000
Ta1905  Ta  0.200000  0.750000  0.850000
W1917  W  0.225000  0.775000  0.875000
Nb1913  Nb  0.250000  0.750000  0.850000
W1918  W  0.275000  0.775000  0.875000
W1919  W  0.300000  0.750000  0.850000
Mo1917  Mo  0.325000  0.775000  0.875000
Ta1906  Ta  0.350000  0.750000  0.850000
Nb1914  Nb  0.375000  0.775000  0.875000
W1920  W  0.400000  0.750000  0.850000
Nb1915  Nb  0.425000  0.775000  0.875000
Ta1907  Ta  0.450000  0.750000  0.850000
Mo1918  Mo  0.475000  0.775000  0.875000
Mo1919  Mo  -0.000000  0.800000  0.850000
W1921  W  0.025000  0.825000  0.875000
Nb1916  Nb  0.050000  0.800000  0.850000
Mo1920  Mo  0.075000  0.825000  0.875000
W1922  W  0.100000  0.800000  0.850000
W1923  W  0.125000  0.825000  0.875000
Ta1908  Ta  0.150000  0.800000  0.850000
Ta1909  Ta  0.175000  0.825000  0.875000
Nb1917  Nb  0.200000  0.800000  0.850000
Ta1910  Ta  0.225000  0.825000  0.875000
Nb1918  Nb  0.250000  0.800000  0.850000
Ta1911  Ta  0.275000  0.825000  0.875000
Nb1919  Nb  0.300000  0.800000  0.850000
Mo1921  Mo  0.325000  0.825000  0.875000
Mo1922  Mo  0.350000  0.800000  0.850000
Ta1912  Ta  0.375000  0.825000  0.875000
Mo1923  Mo  0.400000  0.800000  0.850000
W1924  W  0.425000  0.825000  0.875000
Ta1913  Ta  0.450000  0.800000  0.850000
Nb1920  Nb  0.475000  0.825000  0.875000
Nb1921  Nb  -0.000000  0.850000  0.850000
Mo1924  Mo  0.025000  0.875000  0.875000
W1925  W  0.050000  0.850000  0.850000
Mo1925  Mo  0.075000  0.875000  0.875000
Mo1926  Mo  0.100000  0.850000  0.850000
Mo1927  Mo  0.125000  0.875000  0.875000
W1926  W  0.150000  0.850000  0.850000
W1927  W  0.175000  0.875000  0.875000
Ta1914  Ta  0.200000  0.850000  0.850000
W1928  W  0.225000  0.875000  0.875000
Ta1915  Ta  0.250000  0.850000  0.850000
Ta1916  Ta  0.275000  0.875000  0.875000
W1929  W  0.300000  0.850000  0.850000
Mo1928  Mo  0.325000  0.875000  0.875000
Ta1917  Ta  0.350000  0.850000  0.850000
Nb1922  Nb  0.375000  0.875000  0.875000
W1930  W  0.400000  0.850000  0.850000
Ta1918  Ta  0.425000  0.875000  0.875000
Ta1919  Ta  0.450000  0.850000  0.850000
Ta1920  Ta  0.475000  0.875000  0.875000
W1931  W  -0.000000  0.900000  0.850000
W1932  W  0.025000  0.925000  0.875000
Nb1923  Nb  0.050000  0.900000  0.850000
Ta1921  Ta  0.075000  0.925000  0.875000
Mo1929  Mo  0.100000  0.900000  0.850000
Nb1924  Nb  0.125000  0.925000  0.875000
W1933  W  0.150000  0.900000  0.850000
Mo1930  Mo  0.175000  0.925000  0.875000
Nb1925  Nb  0.200000  0.900000  0.850000
Mo1931  Mo  0.225000  0.925000  0.875000
W1934  W  0.250000  0.900000  0.850000
W1935  W  0.275000  0.925000  0.875000
Ta1922  Ta  0.300000  0.900000  0.850000
Mo1932  Mo  0.325000  0.925000  0.875000
W1936  W  0.350000  0.900000  0.850000
Mo1933  Mo  0.375000  0.925000  0.875000
Ta1923  Ta  0.400000  0.900000  0.850000
Nb1926  Nb  0.425000  0.925000  0.875000
Ta1924  Ta  0.450000  0.900000  0.850000
W1937  W  0.475000  0.925000  0.875000
W1938  W  -0.000000  0.950000  0.850000
Nb1927  Nb  0.025000  0.975000  0.875000
Mo1934  Mo  0.050000  0.950000  0.850000
Ta1925  Ta  0.075000  0.975000  0.875000
Ta1926  Ta  0.100000  0.950000  0.850000
Nb1928  Nb  0.125000  0.975000  0.875000
Nb1929  Nb  0.150000  0.950000  0.850000
Ta1927  Ta  0.175000  0.975000  0.875000
Mo1935  Mo  0.200000  0.950000  0.850000
Ta1928  Ta  0.225000  0.975000  0.875000
W1939  W  0.250000  0.950000  0.850000
W1940  W  0.275000  0.975000  0.875000
Mo1936  Mo  0.300000  0.950000  0.850000
W1941  W  0.325000  0.975000  0.875000
Nb1930  Nb  0.350000  0.950000  0.850000
Mo1937  Mo  0.375000  0.975000  0.875000
Mo1938  Mo  0.400000  0.950000  0.850000
Ta1929  Ta  0.425000  0.975000  0.875000
Nb1931  Nb  0.450000  0.950000  0.850000
Nb1932  Nb  0.475000  0.975000  0.875000
W1942  W  0.025000  0.675000  0.925000
W1943  W  0.075000  0.675000  0.925000
W1944  W  0.125000  0.675000  0.925000
Ta1930  Ta  0.175000  0.675000  0.925000
W1945  W  0.225000  0.675000  0.925000
Mo1939  Mo  0.275000  0.675000  0.925000
Ta1931  Ta  0.325000  0.675000  0.925000
Ta1932  Ta  0.375000  0.675000  0.925000
Nb1933  Nb  0.425000  0.675000  0.925000
Nb1934  Nb  0.475000  0.675000  0.925000
Ta1933  Ta  -0.000000  0.700000  0.900000
W1946  W  0.025000  0.725000  0.925000
Nb1935  Nb  0.050000  0.700000  0.900000
Ta1934  Ta  0.075000  0.725000  0.925000
Ta1935  Ta  0.100000  0.700000  0.900000
Mo1940  Mo  0.125000  0.725000  0.925000
W1947  W  0.150000  0.700000  0.900000
W1948  W  0.175000  0.725000  0.925000
Ta1936  Ta  0.200000  0.700000  0.900000
Ta1937  Ta  0.225000  0.725000  0.925000
Nb1936  Nb  0.250000  0.700000  0.900000
Ta1938  Ta  0.275000  0.725000  0.925000
Ta1939  Ta  0.300000  0.700000  0.900000
W1949  W  0.325000  0.725000  0.925000
W1950  W  0.350000  0.700000  0.900000
Ta1940  Ta  0.375000  0.725000  0.925000
Mo1941  Mo  0.400000  0.700000  0.900000
W1951  W  0.425000  0.725000  0.925000
W1952  W  0.450000  0.700000  0.900000
Nb1937  Nb  0.475000  0.725000  0.925000
W1953  W  -0.000000  0.750000  0.900000
Nb1938  Nb  0.025000  0.775000  0.925000
Mo1942  Mo  0.050000  0.750000  0.900000
Mo1943  Mo  0.075000  0.775000  0.925000
Mo1944  Mo  0.100000  0.750000  0.900000
Mo1945  Mo  0.125000  0.775000  0.925000
Mo1946  Mo  0.150000  0.750000  0.900000
W1954  W  0.175000  0.775000  0.925000
Nb1939  Nb  0.200000  0.750000  0.900000
Mo1947  Mo  0.225000  0.775000  0.925000
Nb1940  Nb  0.250000  0.750000  0.900000
W1955  W  0.275000  0.775000  0.925000
Nb1941  Nb  0.300000  0.750000  0.900000
W1956  W  0.325000  0.775000  0.925000
W1957  W  0.350000  0.750000  0.900000
Ta1941  Ta  0.375000  0.775000  0.925000
Nb1942  Nb  0.400000  0.750000  0.900000
Ta1942  Ta  0.425000  0.775000  0.925000
Mo1948  Mo  0.450000  0.750000  0.900000
W1958  W  0.475000  0.775000  0.925000
Ta1943  Ta  -0.000000  0.800000  0.900000
Ta1944  Ta  0.025000  0.825000  0.925000
Nb1943  Nb  0.050000  0.800000  0.900000
Mo1949  Mo  0.075000  0.825000  0.925000
Ta1945  Ta  0.100000  0.800000  0.900000
W1959  W  0.125000  0.825000  0.925000
W1960  W  0.150000  0.800000  0.900000
Nb1944  Nb  0.175000  0.825000  0.925000
Ta1946  Ta  0.200000  0.800000  0.900000
Ta1947  Ta  0.225000  0.825000  0.925000
Ta1948  Ta  0.250000  0.800000  0.900000
Ta1949  Ta  0.275000  0.825000  0.925000
W1961  W  0.300000  0.800000  0.900000
Ta1950  Ta  0.325000  0.825000  0.925000
W1962  W  0.350000  0.800000  0.900000
Mo1950  Mo  0.375000  0.825000  0.925000
Mo1951  Mo  0.400000  0.800000  0.900000
Nb1945  Nb  0.425000  0.825000  0.925000
Nb1946  Nb  0.450000  0.800000  0.900000
Nb1947  Nb  0.475000  0.825000  0.925000
Mo1952  Mo  -0.000000  0.850000  0.900000
Ta1951  Ta  0.025000  0.875000  0.925000
Nb1948  Nb  0.050000  0.850000  0.900000
Mo1953  Mo  0.075000  0.875000  0.925000
Nb1949  Nb  0.100000  0.850000  0.900000
Nb1950  Nb  0.125000  0.875000  0.925000
Ta1952  Ta  0.150000  0.850000  0.900000
W1963  W  0.175000  0.875000  0.925000
Mo1954  Mo  0.200000  0.850000  0.900000
Nb1951  Nb  0.225000  0.875000  0.925000
Mo1955  Mo  0.250000  0.850000  0.900000
Mo1956  Mo  0.275000  0.875000  0.925000
Ta1953  Ta  0.300000  0.850000  0.900000
Ta1954  Ta  0.325000  0.875000  0.925000
W1964  W  0.350000  0.850000  0.900000
Mo1957  Mo  0.375000  0.875000  0.925000
Ta1955  Ta  0.400000  0.850000  0.900000
W1965  W  0.425000  0.875000  0.925000
Nb1952  Nb  0.450000  0.850000  0.900000
Ta1956  Ta  0.475000  0.875000  0.925000
Nb1953  Nb  -0.000000  0.900000  0.900000
W1966  W  0.025000  0.925000  0.925000
Ta1957  Ta  0.050000  0.900000  0.900000
Nb1954  Nb  0.075000  0.925000  0.925000
W1967  W  0.100000  0.900000  0.900000
Ta1958  Ta  0.125000  0.925000  0.925000
Nb1955  Nb  0.150000  0.900000  0.900000
Mo1958  Mo  0.175000  0.925000  0.925000
W1968  W  0.200000  0.900000  0.900000
Mo1959  Mo  0.225000  0.925000  0.925000
Nb1956  Nb  0.250000  0.900000  0.900000
Nb1957  Nb  0.275000  0.925000  0.925000
Ta1959  Ta  0.300000  0.900000  0.900000
Nb1958  Nb  0.325000  0.925000  0.925000
W1969  W  0.350000  0.900000  0.900000
Mo1960  Mo  0.375000  0.925000  0.925000
Ta1960  Ta  0.400000  0.900000  0.900000
W1970  W  0.425000  0.925000  0.925000
Ta1961  Ta  0.450000  0.900000  0.900000
Ta1962  Ta  0.475000  0.925000  0.925000
Nb1959  Nb  -0.000000  0.950000  0.900000
Nb1960  Nb  0.025000  0.975000  0.925000
Ta1963  Ta  0.050000  0.950000  0.900000
Ta1964  Ta  0.075000  0.975000  0.925000
Mo1961  Mo  0.100000  0.950000  0.900000
Ta1965  Ta  0.125000  0.975000  0.925000
Nb1961  Nb  0.150000  0.950000  0.900000
Mo1962  Mo  0.175000  0.975000  0.925000
Mo1963  Mo  0.200000  0.950000  0.900000
W1971  W  0.225000  0.975000  0.925000
Ta1966  Ta  0.250000  0.950000  0.900000
Nb1962  Nb  0.275000  0.975000  0.925000
Ta1967  Ta  0.300000  0.950000  0.900000
Ta1968  Ta  0.325000  0.975000  0.925000
Nb1963  Nb  0.350000  0.950000  0.900000
Ta1969  Ta  0.375000  0.975000  0.925000
Mo1964  Mo  0.400000  0.950000  0.900000
W1972  W  0.425000  0.975000  0.925000
W1973  W  0.450000  0.950000  0.900000
W1974  W  0.475000  0.975000  0.925000
Mo1965  Mo  0.025000  0.675000  0.975000
Ta1970  Ta  0.075000  0.675000  0.975000
Mo1966  Mo  0.125000  0.675000  0.975000
W1975  W  0.175000  0.675000  0.975000
W1976  W  0.225000  0.675000  0.975000
Nb1964  Nb  0.275000  0.675000  0.975000
W1977  W  0.325000  0.675000  0.975000
Mo1967  Mo  0.375000  0.675000  0.975000
Ta1971  Ta  0.425000  0.675000  0.975000
Nb1965  Nb  0.475000  0.675000  0.975000
Nb1966  Nb  -0.000000  0.700000  0.950000
Ta1972  Ta  0.025000  0.725000  0.975000
Ta1973  Ta  0.050000  0.700000  0.950000
W1978  W  0.075000  0.725000  0.975000
Nb1967  Nb  0.100000  0.700000  0.950000
Nb1968  Nb  0.125000  0.725000  0.975000
Mo1968  Mo  0.150000  0.700000  0.950000
W1979  W  0.175000  0.725000  0.975000
Nb1969  Nb  0.200000  0.700000  0.950000
W1980  W  0.225000  0.725000  0.975000
Ta1974  Ta  0.250000  0.700000  0.950000
Mo1969  Mo  0.275000  0.725000  0.975000
Nb1970  Nb  0.300000  0.700000  0.950000
W1981  W  0.325000  0.725000  0.975000
W1982  W  0.350000  0.700000  0.950000
Nb1971  Nb  0.375000  0.725000  0.975000
Mo1970  Mo  0.400000  0.700000  0.950000
Ta1975  Ta  0.425000  0.725000  0.975000
W1983  W  0.450000  0.700000  0.950000
Mo1971  Mo  0.475000  0.725000  0.975000
Ta1976  Ta  -0.000000  0.750000  0.950000
Mo1972  Mo  0.025000  0.775000  0.975000
Ta1977  Ta  0.050000  0.750000  0.950000
W1984  W  0.075000  0.775000  0.975000
W1985  W  0.100000  0.750000  0.950000
Nb1972  Nb  0.125000  0.775000  0.975000
Mo1973  Mo  0.150000  0.750000  0.950000
Mo1974  Mo  0.175000  0.775000  0.975000
Nb1973  Nb  0.200000  0.750000  0.950000
Ta1978  Ta  0.225000  0.775000  0.975000
Nb1974  Nb  0.250000  0.750000  0.950000
Nb1975  Nb  0.275000  0.775000  0.975000
Nb1976  Nb  0.300000  0.750000  0.950000
Mo1975  Mo  0.325000  0.775000  0.975000
W1986  W  0.350000  0.750000  0.950000
Nb1977  Nb  0.375000  0.775000  0.975000
Nb1978  Nb  0.400000  0.750000  0.950000
Ta1979  Ta  0.425000  0.775000  0.975000
Ta1980  Ta  0.450000  0.750000  0.950000
Mo1976  Mo  0.475000  0.775000  0.975000
Ta1981  Ta  -0.000000  0.800000  0.950000
Ta1982  Ta  0.025000  0.825000  0.975000
Mo1977  Mo  0.050000  0.800000  0.950000
W1987  W  0.075000  0.825000  0.975000
Nb1979  Nb  0.100000  0.800000  0.950000
Ta1983  Ta  0.125000  0.825000  0.975000
Nb1980  Nb  0.150000  0.800000  0.950000
Nb1981  Nb  0.175000  0.825000  0.975000
W1988  W  0.200000  0.800000  0.950000
Nb1982  Nb  0.225000  0.825000  0.975000
Ta1984  Ta  0.250000  0.800000  0.950000
Nb1983  Nb  0.275000  0.825000  0.975000
Ta1985  Ta  0.300000  0.800000  0.950000
W1989  W  0.325000  0.825000  0.975000
Ta1986  Ta  0.350000  0.800000  0.950000
Mo1978  Mo  0.375000  0.825000  0.975000
Ta1987  Ta  0.400000  0.800000  0.950000
Mo1979  Mo  0.425000  0.825000  0.975000
Nb1984  Nb  0.450000  0.800000  0.950000
W1990  W  0.475000  0.825000  0.975000
Nb1985  Nb  -0.000000  0.850000  0.950000
Mo1980  Mo  0.025000  0.875000  0.975000
Mo1981  Mo  0.050000  0.850000  0.950000
Ta1988  Ta  0.075000  0.875000  0.975000
Nb1986  Nb  0.100000  0.850000  0.950000
Nb1987  Nb  0.125000  0.875000  0.975000
Ta1989  Ta  0.150000  0.850000  0.950000
Ta1990  Ta  0.175000  0.875000  0.975000
Mo1982  Mo  0.200000  0.850000  0.950000
Ta1991  Ta  0.225000  0.875000  0.975000
Nb1988  Nb  0.250000  0.850000  0.950000
Ta1992  Ta  0.275000  0.875000  0.975000
Mo1983  Mo  0.300000  0.850000  0.950000
Mo1984  Mo  0.325000  0.875000  0.975000
W1991  W  0.350000  0.850000  0.950000
W1992  W  0.375000  0.875000  0.975000
Ta1993  Ta  0.400000  0.850000  0.950000
W1993  W  0.425000  0.875000  0.975000
Ta1994  Ta  0.450000  0.850000  0.950000
W1994  W  0.475000  0.875000  0.975000
Mo1985  Mo  -0.000000  0.900000  0.950000
W1995  W  0.025000  0.925000  0.975000
Mo1986  Mo  0.050000  0.900000  0.950000
Mo1987  Mo  0.075000  0.925000  0.975000
Mo1988  Mo  0.100000  0.900000  0.950000
Nb1989  Nb  0.125000  0.925000  0.975000
W1996  W  0.150000  0.900000  0.950000
Mo1989  Mo  0.175000  0.925000  0.975000
Nb1990  Nb  0.200000  0.900000  0.950000
Nb1991  Nb  0.225000  0.925000  0.975000
W1997  W  0.250000  0.900000  0.950000
W1998  W  0.275000  0.925000  0.975000
W1999  W  0.300000  0.900000  0.950000
Nb1992  Nb  0.325000  0.925000  0.975000
Nb1993  Nb  0.350000  0.900000  0.950000
Nb1994  Nb  0.375000  0.925000  0.975000
Nb1995  Nb  0.400000  0.900000  0.950000
Mo1990  Mo  0.425000  0.925000  0.975000
Ta1995  Ta  0.450000  0.900000  0.950000
Mo1991  Mo  0.475000  0.925000  0.975000
Ta1996  Ta  -0.000000  0.950000  0.950000
W2000  W  0.025000  0.975000  0.975000
Nb1996  Nb  0.050000  0.950000  0.950000
Mo1992  Mo  0.075000  0.975000  0.975000
Ta1997  Ta  0.100000  0.950000  0.950000
Ta1998  Ta  0.125000  0.975000  0.975000
Mo1993  Mo  0.150000  0.950000  0.950000
W2001  W  0.175000  0.975000  0.975000
W2002  W  0.200000  0.950000  0.950000
Nb1997  Nb  0.225000  0.975000  0.975000
W2003  W  0.250000  0.950000  0.950000
Mo1994  Mo  0.275000  0.975000  0.975000
Nb1998  Nb  0.300000  0.950000  0.950000
W2004  W  0.325000  0.975000  0.975000
Nb1999  Nb  0.350000  0.950000  0.950000
W2005  W  0.375000  0.975000  0.975000
Ta1999  Ta  0.400000  0.950000  0.950000
Ta2000  Ta  0.425000  0.975000  0.975000
W2006  W  0.450000  0.950000  0.950000
Ta2001  Ta  0.475000  0.975000  0.975000
W2007  W  0.500000  0.000000  0.000000
Ta2002  Ta  0.525000  0.025000  0.025000
Nb2000  Nb  0.550000  0.000000  0.000000
Nb2001  Nb  0.575000  0.025000  0.025000
Mo1995  Mo  0.600000  0.000000  0.000000
Mo1996  Mo  0.625000  0.025000  0.025000
Nb2002  Nb  0.650000  0.000000  0.000000
Ta2003  Ta  0.675000  0.025000  0.025000
Mo1997  Mo  0.700000  0.000000  0.000000
Ta2004  Ta  0.725000  0.025000  0.025000
Nb2003  Nb  0.750000  0.000000  0.000000
Nb2004  Nb  0.775000  0.025000  0.025000
W2008  W  0.800000  0.000000  0.000000
W2009  W  0.825000  0.025000  0.025000
Ta2005  Ta  0.850000  0.000000  0.000000
Mo1998  Mo  0.875000  0.025000  0.025000
Mo1999  Mo  0.900000  0.000000  0.000000
W2010  W  0.925000  0.025000  0.025000
Mo2000  Mo  0.950000  0.000000  0.000000
Nb2005  Nb  0.975000  0.025000  0.025000
Mo2001  Mo  0.500000  0.050000  0.000000
Nb2006  Nb  0.525000  0.075000  0.025000
Nb2007  Nb  0.550000  0.050000  0.000000
Ta2006  Ta  0.575000  0.075000  0.025000
Mo2002  Mo  0.600000  0.050000  0.000000
Ta2007  Ta  0.625000  0.075000  0.025000
Nb2008  Nb  0.650000  0.050000  0.000000
W2011  W  0.675000  0.075000  0.025000
Ta2008  Ta  0.700000  0.050000  0.000000
W2012  W  0.725000  0.075000  0.025000
Ta2009  Ta  0.750000  0.050000  0.000000
Mo2003  Mo  0.775000  0.075000  0.025000
Ta2010  Ta  0.800000  0.050000  0.000000
W2013  W  0.825000  0.075000  0.025000
W2014  W  0.850000  0.050000  0.000000
Ta2011  Ta  0.875000  0.075000  0.025000
Nb2009  Nb  0.900000  0.050000  0.000000
Ta2012  Ta  0.925000  0.075000  0.025000
Nb2010  Nb  0.950000  0.050000  0.000000
W2015  W  0.975000  0.075000  0.025000
W2016  W  0.500000  0.100000  0.000000
Nb2011  Nb  0.525000  0.125000  0.025000
Mo2004  Mo  0.550000  0.100000  0.000000
W2017  W  0.575000  0.125000  0.025000
Nb2012  Nb  0.600000  0.100000  0.000000
Mo2005  Mo  0.625000  0.125000  0.025000
Ta2013  Ta  0.650000  0.100000  0.000000
Nb2013  Nb  0.675000  0.125000  0.025000
Mo2006  Mo  0.700000  0.100000  0.000000
Nb2014  Nb  0.725000  0.125000  0.025000
Mo2007  Mo  0.750000  0.100000  0.000000
W2018  W  0.775000  0.125000  0.025000
Mo2008  Mo  0.800000  0.100000  0.000000
Mo2009  Mo  0.825000  0.125000  0.025000
Ta2014  Ta  0.850000  0.100000  0.000000
Nb2015  Nb  0.875000  0.125000  0.025000
W2019  W  0.900000  0.100000  0.000000
Ta2015  Ta  0.925000  0.125000  0.025000
Nb2016  Nb  0.950000  0.100000  0.000000
Mo2010  Mo  0.975000  0.125000  0.025000
Ta2016  Ta  0.500000  0.150000  0.000000
Nb2017  Nb  0.525000  0.175000  0.025000
W2020  W  0.550000  0.150000  0.000000
Ta2017  Ta  0.575000  0.175000  0.025000
Mo2011  Mo  0.600000  0.150000  0.000000
Ta2018  Ta  0.625000  0.175000  0.025000
Nb2018  Nb  0.650000  0.150000  0.000000
W2021  W  0.675000  0.175000  0.025000
Nb2019  Nb  0.700000  0.150000  0.000000
Nb2020  Nb  0.725000  0.175000  0.025000
Mo2012  Mo  0.750000  0.150000  0.000000
W2022  W  0.775000  0.175000  0.025000
W2023  W  0.800000  0.150000  0.000000
Nb2021  Nb  0.825000  0.175000  0.025000
Mo2013  Mo  0.850000  0.150000  0.000000
Mo2014  Mo  0.875000  0.175000  0.025000
Mo2015  Mo  0.900000  0.150000  0.000000
Mo2016  Mo  0.925000  0.175000  0.025000
W2024  W  0.950000  0.150000  0.000000
Ta2019  Ta  0.975000  0.175000  0.025000
W2025  W  0.500000  0.200000  0.000000
Mo2017  Mo  0.525000  0.225000  0.025000
Ta2020  Ta  0.550000  0.200000  0.000000
Nb2022  Nb  0.575000  0.225000  0.025000
Ta2021  Ta  0.600000  0.200000  0.000000
Ta2022  Ta  0.625000  0.225000  0.025000
Nb2023  Nb  0.650000  0.200000  0.000000
Ta2023  Ta  0.675000  0.225000  0.025000
Nb2024  Nb  0.700000  0.200000  0.000000
Nb2025  Nb  0.725000  0.225000  0.025000
Ta2024  Ta  0.750000  0.200000  0.000000
W2026  W  0.775000  0.225000  0.025000
Nb2026  Nb  0.800000  0.200000  0.000000
Ta2025  Ta  0.825000  0.225000  0.025000
W2027  W  0.850000  0.200000  0.000000
Ta2026  Ta  0.875000  0.225000  0.025000
Ta2027  Ta  0.900000  0.200000  0.000000
Ta2028  Ta  0.925000  0.225000  0.025000
Nb2027  Nb  0.950000  0.200000  0.000000
Mo2018  Mo  0.975000  0.225000  0.025000
W2028  W  0.500000  0.250000  0.000000
Nb2028  Nb  0.525000  0.275000  0.025000
Ta2029  Ta  0.550000  0.250000  0.000000
Mo2019  Mo  0.575000  0.275000  0.025000
Nb2029  Nb  0.600000  0.250000  0.000000
Mo2020  Mo  0.625000  0.275000  0.025000
Nb2030  Nb  0.650000  0.250000  0.000000
W2029  W  0.675000  0.275000  0.025000
Ta2030  Ta  0.700000  0.250000  0.000000
Nb2031  Nb  0.725000  0.275000  0.025000
Mo2021  Mo  0.750000  0.250000  0.000000
W2030  W  0.775000  0.275000  0.025000
Nb2032  Nb  0.800000  0.250000  0.000000
Ta2031  Ta  0.825000  0.275000  0.025000
Nb2033  Nb  0.850000  0.250000  0.000000
W2031  W  0.875000  0.275000  0.025000
W2032  W  0.900000  0.250000  0.000000
Ta2032  Ta  0.925000  0.275000  0.025000
W2033  W  0.950000  0.250000  0.000000
Mo2022  Mo  0.975000  0.275000  0.025000
Nb2034  Nb  0.500000  0.300000  0.000000
Nb2035  Nb  0.525000  0.325000  0.025000
Ta2033  Ta  0.550000  0.300000  0.000000
Mo2023  Mo  0.575000  0.325000  0.025000
Nb2036  Nb  0.600000  0.300000  0.000000
Nb2037  Nb  0.625000  0.325000  0.025000
W2034  W  0.650000  0.300000  0.000000
Mo2024  Mo  0.675000  0.325000  0.025000
Ta2034  Ta  0.700000  0.300000  0.000000
Mo2025  Mo  0.725000  0.325000  0.025000
Ta2035  Ta  0.750000  0.300000  0.000000
W2035  W  0.775000  0.325000  0.025000
Ta2036  Ta  0.800000  0.300000  0.000000
Mo2026  Mo  0.825000  0.325000  0.025000
Mo2027  Mo  0.850000  0.300000  0.000000
W2036  W  0.875000  0.325000  0.025000
Nb2038  Nb  0.900000  0.300000  0.000000
Ta2037  Ta  0.925000  0.325000  0.025000
Ta2038  Ta  0.950000  0.300000  0.000000
Mo2028  Mo  0.975000  0.325000  0.025000
Ta2039  Ta  0.500000 -0.000000  0.050000
Ta2040  Ta  0.525000  0.025000  0.075000
W2037  W  0.550000 -0.000000  0.050000
Ta2041  Ta  0.575000  0.025000  0.075000
Nb2039  Nb  0.600000 -0.000000  0.050000
Ta2042  Ta  0.625000  0.025000  0.075000
Ta2043  Ta  0.650000 -0.000000  0.050000
Mo2029  Mo  0.675000  0.025000  0.075000
Nb2040  Nb  0.700000 -0.000000  0.050000
Mo2030  Mo  0.725000  0.025000  0.075000
Nb2041  Nb  0.750000 -0.000000  0.050000
W2038  W  0.775000  0.025000  0.075000
Nb2042  Nb  0.800000 -0.000000  0.050000
Nb2043  Nb  0.825000  0.025000  0.075000
Mo2031  Mo  0.850000 -0.000000  0.050000
Mo2032  Mo  0.875000  0.025000  0.075000
Nb2044  Nb  0.900000 -0.000000  0.050000
Nb2045  Nb  0.925000  0.025000  0.075000
W2039  W  0.950000 -0.000000  0.050000
Nb2046  Nb  0.975000  0.025000  0.075000
Nb2047  Nb  0.500000  0.050000  0.050000
Nb2048  Nb  0.525000  0.075000  0.075000
Ta2044  Ta  0.550000  0.050000  0.050000
W2040  W  0.575000  0.075000  0.075000
Nb2049  Nb  0.600000  0.050000  0.050000
Mo2033  Mo  0.625000  0.075000  0.075000
Mo2034  Mo  0.650000  0.050000  0.050000
W2041  W  0.675000  0.075000  0.075000
Nb2050  Nb  0.700000  0.050000  0.050000
Ta2045  Ta  0.725000  0.075000  0.075000
Nb2051  Nb  0.750000  0.050000  0.050000
Nb2052  Nb  0.775000  0.075000  0.075000
Nb2053  Nb  0.800000  0.050000  0.050000
W2042  W  0.825000  0.075000  0.075000
W2043  W  0.850000  0.050000  0.050000
W2044  W  0.875000  0.075000  0.075000
Nb2054  Nb  0.900000  0.050000  0.050000
Ta2046  Ta  0.925000  0.075000  0.075000
Ta2047  Ta  0.950000  0.050000  0.050000
Nb2055  Nb  0.975000  0.075000  0.075000
Nb2056  Nb  0.500000  0.100000  0.050000
Ta2048  Ta  0.525000  0.125000  0.075000
Nb2057  Nb  0.550000  0.100000  0.050000
Ta2049  Ta  0.575000  0.125000  0.075000
W2045  W  0.600000  0.100000  0.050000
Mo2035  Mo  0.625000  0.125000  0.075000
Nb2058  Nb  0.650000  0.100000  0.050000
Ta2050  Ta  0.675000  0.125000  0.075000
Nb2059  Nb  0.700000  0.100000  0.050000
W2046  W  0.725000  0.125000  0.075000
Nb2060  Nb  0.750000  0.100000  0.050000
W2047  W  0.775000  0.125000  0.075000
Mo2036  Mo  0.800000  0.100000  0.050000
Mo2037  Mo  0.825000  0.125000  0.075000
Mo2038  Mo  0.850000  0.100000  0.050000
Mo2039  Mo  0.875000  0.125000  0.075000
Ta2051  Ta  0.900000  0.100000  0.050000
Ta2052  Ta  0.925000  0.125000  0.075000
Nb2061  Nb  0.950000  0.100000  0.050000
Mo2040  Mo  0.975000  0.125000  0.075000
Mo2041  Mo  0.500000  0.150000  0.050000
Mo2042  Mo  0.525000  0.175000  0.075000
Nb2062  Nb  0.550000  0.150000  0.050000
Nb2063  Nb  0.575000  0.175000  0.075000
Ta2053  Ta  0.600000  0.150000  0.050000
Ta2054  Ta  0.625000  0.175000  0.075000
Nb2064  Nb  0.650000  0.150000  0.050000
Ta2055  Ta  0.675000  0.175000  0.075000
Ta2056  Ta  0.700000  0.150000  0.050000
Nb2065  Nb  0.725000  0.175000  0.075000
Nb2066  Nb  0.750000  0.150000  0.050000
Nb2067  Nb  0.775000  0.175000  0.075000
Mo2043  Mo  0.800000  0.150000  0.050000
Ta2057  Ta  0.825000  0.175000  0.075000
Nb2068  Nb  0.850000  0.150000  0.050000
Nb2069  Nb  0.875000  0.175000  0.075000
Mo2044  Mo  0.900000  0.150000  0.050000
Ta2058  Ta  0.925000  0.175000  0.075000
W2048  W  0.950000  0.150000  0.050000
Ta2059  Ta  0.975000  0.175000  0.075000
Mo2045  Mo  0.500000  0.200000  0.050000
Nb2070  Nb  0.525000  0.225000  0.075000
Ta2060  Ta  0.550000  0.200000  0.050000
Mo2046  Mo  0.575000  0.225000  0.075000
W2049  W  0.600000  0.200000  0.050000
Mo2047  Mo  0.625000  0.225000  0.075000
Mo2048  Mo  0.650000  0.200000  0.050000
Mo2049  Mo  0.675000  0.225000  0.075000
Nb2071  Nb  0.700000  0.200000  0.050000
Mo2050  Mo  0.725000  0.225000  0.075000
W2050  W  0.750000  0.200000  0.050000
W2051  W  0.775000  0.225000  0.075000
Ta2061  Ta  0.800000  0.200000  0.050000
Nb2072  Nb  0.825000  0.225000  0.075000
Ta2062  Ta  0.850000  0.200000  0.050000
Mo2051  Mo  0.875000  0.225000  0.075000
Ta2063  Ta  0.900000  0.200000  0.050000
Mo2052  Mo  0.925000  0.225000  0.075000
Ta2064  Ta  0.950000  0.200000  0.050000
W2052  W  0.975000  0.225000  0.075000
Mo2053  Mo  0.500000  0.250000  0.050000
Nb2073  Nb  0.525000  0.275000  0.075000
Nb2074  Nb  0.550000  0.250000  0.050000
Nb2075  Nb  0.575000  0.275000  0.075000
W2053  W  0.600000  0.250000  0.050000
Mo2054  Mo  0.625000  0.275000  0.075000
Ta2065  Ta  0.650000  0.250000  0.050000
W2054  W  0.675000  0.275000  0.075000
Nb2076  Nb  0.700000  0.250000  0.050000
Nb2077  Nb  0.725000  0.275000  0.075000
Mo2055  Mo  0.750000  0.250000  0.050000
Ta2066  Ta  0.775000  0.275000  0.075000
Mo2056  Mo  0.800000  0.250000  0.050000
W2055  W  0.825000  0.275000  0.075000
W2056  W  0.850000  0.250000  0.050000
Nb2078  Nb  0.875000  0.275000  0.075000
Mo2057  Mo  0.900000  0.250000  0.050000
Nb2079  Nb  0.925000  0.275000  0.075000
Mo2058  Mo  0.950000  0.250000  0.050000
Mo2059  Mo  0.975000  0.275000  0.075000
Nb2080  Nb  0.500000  0.300000  0.050000
Nb2081  Nb  0.525000  0.325000  0.075000
Ta2067  Ta  0.550000  0.300000  0.050000
W2057  W  0.575000  0.325000  0.075000
Nb2082  Nb  0.600000  0.300000  0.050000
Ta2068  Ta  0.625000  0.325000  0.075000
W2058  W  0.650000  0.300000  0.050000
Nb2083  Nb  0.675000  0.325000  0.075000
Ta2069  Ta  0.700000  0.300000  0.050000
Nb2084  Nb  0.725000  0.325000  0.075000
Mo2060  Mo  0.750000  0.300000  0.050000
W2059  W  0.775000  0.325000  0.075000
W2060  W  0.800000  0.300000  0.050000
Nb2085  Nb  0.825000  0.325000  0.075000
Ta2070  Ta  0.850000  0.300000  0.050000
Ta2071  Ta  0.875000  0.325000  0.075000
Nb2086  Nb  0.900000  0.300000  0.050000
Mo2061  Mo  0.925000  0.325000  0.075000
Mo2062  Mo  0.950000  0.300000  0.050000
Mo2063  Mo  0.975000  0.325000  0.075000
W2061  W  0.500000 -0.000000  0.100000
Mo2064  Mo  0.525000  0.025000  0.125000
Nb2087  Nb  0.550000 -0.000000  0.100000
Ta2072  Ta  0.575000  0.025000  0.125000
Nb2088  Nb  0.600000 -0.000000  0.100000
Nb2089  Nb  0.625000  0.025000  0.125000
Nb2090  Nb  0.650000 -0.000000  0.100000
Nb2091  Nb  0.675000  0.025000  0.125000
Mo2065  Mo  0.700000 -0.000000  0.100000
W2062  W  0.725000  0.025000  0.125000
W2063  W  0.750000 -0.000000  0.100000
Ta2073  Ta  0.775000  0.025000  0.125000
Mo2066  Mo  0.800000 -0.000000  0.100000
Nb2092  Nb  0.825000  0.025000  0.125000
W2064  W  0.850000 -0.000000  0.100000
Ta2074  Ta  0.875000  0.025000  0.125000
Ta2075  Ta  0.900000 -0.000000  0.100000
Mo2067  Mo  0.925000  0.025000  0.125000
W2065  W  0.950000 -0.000000  0.100000
Mo2068  Mo  0.975000  0.025000  0.125000
Ta2076  Ta  0.500000  0.050000  0.100000
W2066  W  0.525000  0.075000  0.125000
Nb2093  Nb  0.550000  0.050000  0.100000
Nb2094  Nb  0.575000  0.075000  0.125000
W2067  W  0.600000  0.050000  0.100000
Nb2095  Nb  0.625000  0.075000  0.125000
W2068  W  0.650000  0.050000  0.100000
Mo2069  Mo  0.675000  0.075000  0.125000
Nb2096  Nb  0.700000  0.050000  0.100000
Mo2070  Mo  0.725000  0.075000  0.125000
Nb2097  Nb  0.750000  0.050000  0.100000
Mo2071  Mo  0.775000  0.075000  0.125000
W2069  W  0.800000  0.050000  0.100000
Ta2077  Ta  0.825000  0.075000  0.125000
Ta2078  Ta  0.850000  0.050000  0.100000
Mo2072  Mo  0.875000  0.075000  0.125000
Mo2073  Mo  0.900000  0.050000  0.100000
W2070  W  0.925000  0.075000  0.125000
Mo2074  Mo  0.950000  0.050000  0.100000
Ta2079  Ta  0.975000  0.075000  0.125000
Mo2075  Mo  0.500000  0.100000  0.100000
Nb2098  Nb  0.525000  0.125000  0.125000
Nb2099  Nb  0.550000  0.100000  0.100000
Mo2076  Mo  0.575000  0.125000  0.125000
Mo2077  Mo  0.600000  0.100000  0.100000
W2071  W  0.625000  0.125000  0.125000
Mo2078  Mo  0.650000  0.100000  0.100000
Nb2100  Nb  0.675000  0.125000  0.125000
W2072  W  0.700000  0.100000  0.100000
Nb2101  Nb  0.725000  0.125000  0.125000
Mo2079  Mo  0.750000  0.100000  0.100000
W2073  W  0.775000  0.125000  0.125000
Mo2080  Mo  0.800000  0.100000  0.100000
Nb2102  Nb  0.825000  0.125000  0.125000
Mo2081  Mo  0.850000  0.100000  0.100000
Nb2103  Nb  0.875000  0.125000  0.125000
W2074  W  0.900000  0.100000  0.100000
Nb2104  Nb  0.925000  0.125000  0.125000
W2075  W  0.950000  0.100000  0.100000
Nb2105  Nb  0.975000  0.125000  0.125000
Ta2080  Ta  0.500000  0.150000  0.100000
Mo2082  Mo  0.525000  0.175000  0.125000
Ta2081  Ta  0.550000  0.150000  0.100000
Nb2106  Nb  0.575000  0.175000  0.125000
Nb2107  Nb  0.600000  0.150000  0.100000
Mo2083  Mo  0.625000  0.175000  0.125000
Nb2108  Nb  0.650000  0.150000  0.100000
Ta2082  Ta  0.675000  0.175000  0.125000
W2076  W  0.700000  0.150000  0.100000
Mo2084  Mo  0.725000  0.175000  0.125000
Nb2109  Nb  0.750000  0.150000  0.100000
Mo2085  Mo  0.775000  0.175000  0.125000
Mo2086  Mo  0.800000  0.150000  0.100000
Mo2087  Mo  0.825000  0.175000  0.125000
W2077  W  0.850000  0.150000  0.100000
Mo2088  Mo  0.875000  0.175000  0.125000
Ta2083  Ta  0.900000  0.150000  0.100000
W2078  W  0.925000  0.175000  0.125000
W2079  W  0.950000  0.150000  0.100000
W2080  W  0.975000  0.175000  0.125000
Ta2084  Ta  0.500000  0.200000  0.100000
Mo2089  Mo  0.525000  0.225000  0.125000
Mo2090  Mo  0.550000  0.200000  0.100000
Ta2085  Ta  0.575000  0.225000  0.125000
Ta2086  Ta  0.600000  0.200000  0.100000
Mo2091  Mo  0.625000  0.225000  0.125000
Mo2092  Mo  0.650000  0.200000  0.100000
Ta2087  Ta  0.675000  0.225000  0.125000
Mo2093  Mo  0.700000  0.200000  0.100000
W2081  W  0.725000  0.225000  0.125000
Nb2110  Nb  0.750000  0.200000  0.100000
Nb2111  Nb  0.775000  0.225000  0.125000
W2082  W  0.800000  0.200000  0.100000
Nb2112  Nb  0.825000  0.225000  0.125000
Ta2088  Ta  0.850000  0.200000  0.100000
Ta2089  Ta  0.875000  0.225000  0.125000
W2083  W  0.900000  0.200000  0.100000
Ta2090  Ta  0.925000  0.225000  0.125000
Nb2113  Nb  0.950000  0.200000  0.100000
Nb2114  Nb  0.975000  0.225000  0.125000
Nb2115  Nb  0.500000  0.250000  0.100000
Mo2094  Mo  0.525000  0.275000  0.125000
Nb2116  Nb  0.550000  0.250000  0.100000
Mo2095  Mo  0.575000  0.275000  0.125000
Nb2117  Nb  0.600000  0.250000  0.100000
Mo2096  Mo  0.625000  0.275000  0.125000
Mo2097  Mo  0.650000  0.250000  0.100000
Mo2098  Mo  0.675000  0.275000  0.125000
Mo2099  Mo  0.700000  0.250000  0.100000
Mo2100  Mo  0.725000  0.275000  0.125000
Nb2118  Nb  0.750000  0.250000  0.100000
Mo2101  Mo  0.775000  0.275000  0.125000
Nb2119  Nb  0.800000  0.250000  0.100000
W2084  W  0.825000  0.275000  0.125000
Nb2120  Nb  0.850000  0.250000  0.100000
W2085  W  0.875000  0.275000  0.125000
Mo2102  Mo  0.900000  0.250000  0.100000
Nb2121  Nb  0.925000  0.275000  0.125000
Nb2122  Nb  0.950000  0.250000  0.100000
Ta2091  Ta  0.975000  0.275000  0.125000
Nb2123  Nb  0.500000  0.300000  0.100000
Mo2103  Mo  0.525000  0.325000  0.125000
Mo2104  Mo  0.550000  0.300000  0.100000
W2086  W  0.575000  0.325000  0.125000
Nb2124  Nb  0.600000  0.300000  0.100000
Mo2105  Mo  0.625000  0.325000  0.125000
W2087  W  0.650000  0.300000  0.100000
Nb2125  Nb  0.675000  0.325000  0.125000
Ta2092  Ta  0.700000  0.300000  0.100000
Nb2126  Nb  0.725000  0.325000  0.125000
W2088  W  0.750000  0.300000  0.100000
Ta2093  Ta  0.775000  0.325000  0.125000
Nb2127  Nb  0.800000  0.300000  0.100000
W2089  W  0.825000  0.325000  0.125000
W2090  W  0.850000  0.300000  0.100000
Ta2094  Ta  0.875000  0.325000  0.125000
W2091  W  0.900000  0.300000  0.100000
Nb2128  Nb  0.925000  0.325000  0.125000
Nb2129  Nb  0.950000  0.300000  0.100000
Mo2106  Mo  0.975000  0.325000  0.125000
Ta2095  Ta  0.500000 -0.000000  0.150000
Mo2107  Mo  0.525000  0.025000  0.175000
Ta2096  Ta  0.550000 -0.000000  0.150000
Ta2097  Ta  0.575000  0.025000  0.175000
Ta2098  Ta  0.600000 -0.000000  0.150000
Ta2099  Ta  0.625000  0.025000  0.175000
Nb2130  Nb  0.650000 -0.000000  0.150000
Ta2100  Ta  0.675000  0.025000  0.175000
Mo2108  Mo  0.700000 -0.000000  0.150000
Ta2101  Ta  0.725000  0.025000  0.175000
W2092  W  0.750000 -0.000000  0.150000
W2093  W  0.775000  0.025000  0.175000
W2094  W  0.800000 -0.000000  0.150000
Mo2109  Mo  0.825000  0.025000  0.175000
Ta2102  Ta  0.850000 -0.000000  0.150000
Nb2131  Nb  0.875000  0.025000  0.175000
Nb2132  Nb  0.900000 -0.000000  0.150000
Mo2110  Mo  0.925000  0.025000  0.175000
Nb2133  Nb  0.950000 -0.000000  0.150000
Mo2111  Mo  0.975000  0.025000  0.175000
Ta2103  Ta  0.500000  0.050000  0.150000
Mo2112  Mo  0.525000  0.075000  0.175000
Nb2134  Nb  0.550000  0.050000  0.150000
Mo2113  Mo  0.575000  0.075000  0.175000
Mo2114  Mo  0.600000  0.050000  0.150000
Ta2104  Ta  0.625000  0.075000  0.175000
Mo2115  Mo  0.650000  0.050000  0.150000
Nb2135  Nb  0.675000  0.075000  0.175000
Ta2105  Ta  0.700000  0.050000  0.150000
Mo2116  Mo  0.725000  0.075000  0.175000
Mo2117  Mo  0.750000  0.050000  0.150000
Mo2118  Mo  0.775000  0.075000  0.175000
Ta2106  Ta  0.800000  0.050000  0.150000
Nb2136  Nb  0.825000  0.075000  0.175000
W2095  W  0.850000  0.050000  0.150000
Mo2119  Mo  0.875000  0.075000  0.175000
Mo2120  Mo  0.900000  0.050000  0.150000
Mo2121  Mo  0.925000  0.075000  0.175000
W2096  W  0.950000  0.050000  0.150000
Mo2122  Mo  0.975000  0.075000  0.175000
Nb2137  Nb  0.500000  0.100000  0.150000
W2097  W  0.525000  0.125000  0.175000
Mo2123  Mo  0.550000  0.100000  0.150000
W2098  W  0.575000  0.125000  0.175000
Mo2124  Mo  0.600000  0.100000  0.150000
Mo2125  Mo  0.625000  0.125000  0.175000
Nb2138  Nb  0.650000  0.100000  0.150000
W2099  W  0.675000  0.125000  0.175000
Ta2107  Ta  0.700000  0.100000  0.150000
Ta2108  Ta  0.725000  0.125000  0.175000
Nb2139  Nb  0.750000  0.100000  0.150000
W2100  W  0.775000  0.125000  0.175000
W2101  W  0.800000  0.100000  0.150000
W2102  W  0.825000  0.125000  0.175000
Ta2109  Ta  0.850000  0.100000  0.150000
Nb2140  Nb  0.875000  0.125000  0.175000
Nb2141  Nb  0.900000  0.100000  0.150000
Ta2110  Ta  0.925000  0.125000  0.175000
Nb2142  Nb  0.950000  0.100000  0.150000
W2103  W  0.975000  0.125000  0.175000
Ta2111  Ta  0.500000  0.150000  0.150000
Mo2126  Mo  0.525000  0.175000  0.175000
W2104  W  0.550000  0.150000  0.150000
W2105  W  0.575000  0.175000  0.175000
Ta2112  Ta  0.600000  0.150000  0.150000
W2106  W  0.625000  0.175000  0.175000
Mo2127  Mo  0.650000  0.150000  0.150000
Mo2128  Mo  0.675000  0.175000  0.175000
Ta2113  Ta  0.700000  0.150000  0.150000
Nb2143  Nb  0.725000  0.175000  0.175000
Ta2114  Ta  0.750000  0.150000  0.150000
Nb2144  Nb  0.775000  0.175000  0.175000
Ta2115  Ta  0.800000  0.150000  0.150000
Mo2129  Mo  0.825000  0.175000  0.175000
W2107  W  0.850000  0.150000  0.150000
Ta2116  Ta  0.875000  0.175000  0.175000
Mo2130  Mo  0.900000  0.150000  0.150000
W2108  W  0.925000  0.175000  0.175000
Nb2145  Nb  0.950000  0.150000  0.150000
Mo2131  Mo  0.975000  0.175000  0.175000
W2109  W  0.500000  0.200000  0.150000
Nb2146  Nb  0.525000  0.225000  0.175000
W2110  W  0.550000  0.200000  0.150000
Mo2132  Mo  0.575000  0.225000  0.175000
Nb2147  Nb  0.600000  0.200000  0.150000
Mo2133  Mo  0.625000  0.225000  0.175000
Mo2134  Mo  0.650000  0.200000  0.150000
Ta2117  Ta  0.675000  0.225000  0.175000
Nb2148  Nb  0.700000  0.200000  0.150000
W2111  W  0.725000  0.225000  0.175000
W2112  W  0.750000  0.200000  0.150000
Nb2149  Nb  0.775000  0.225000  0.175000
Ta2118  Ta  0.800000  0.200000  0.150000
Nb2150  Nb  0.825000  0.225000  0.175000
Nb2151  Nb  0.850000  0.200000  0.150000
Nb2152  Nb  0.875000  0.225000  0.175000
Mo2135  Mo  0.900000  0.200000  0.150000
Ta2119  Ta  0.925000  0.225000  0.175000
W2113  W  0.950000  0.200000  0.150000
Ta2120  Ta  0.975000  0.225000  0.175000
Ta2121  Ta  0.500000  0.250000  0.150000
Nb2153  Nb  0.525000  0.275000  0.175000
Mo2136  Mo  0.550000  0.250000  0.150000
Nb2154  Nb  0.575000  0.275000  0.175000
Mo2137  Mo  0.600000  0.250000  0.150000
W2114  W  0.625000  0.275000  0.175000
Nb2155  Nb  0.650000  0.250000  0.150000
Nb2156  Nb  0.675000  0.275000  0.175000
Mo2138  Mo  0.700000  0.250000  0.150000
Ta2122  Ta  0.725000  0.275000  0.175000
W2115  W  0.750000  0.250000  0.150000
W2116  W  0.775000  0.275000  0.175000
Ta2123  Ta  0.800000  0.250000  0.150000
W2117  W  0.825000  0.275000  0.175000
Mo2139  Mo  0.850000  0.250000  0.150000
Ta2124  Ta  0.875000  0.275000  0.175000
Ta2125  Ta  0.900000  0.250000  0.150000
W2118  W  0.925000  0.275000  0.175000
Ta2126  Ta  0.950000  0.250000  0.150000
Mo2140  Mo  0.975000  0.275000  0.175000
Nb2157  Nb  0.500000  0.300000  0.150000
W2119  W  0.525000  0.325000  0.175000
Nb2158  Nb  0.550000  0.300000  0.150000
Nb2159  Nb  0.575000  0.325000  0.175000
Nb2160  Nb  0.600000  0.300000  0.150000
Nb2161  Nb  0.625000  0.325000  0.175000
W2120  W  0.650000  0.300000  0.150000
Nb2162  Nb  0.675000  0.325000  0.175000
Ta2127  Ta  0.700000  0.300000  0.150000
Ta2128  Ta  0.725000  0.325000  0.175000
Ta2129  Ta  0.750000  0.300000  0.150000
Nb2163  Nb  0.775000  0.325000  0.175000
Mo2141  Mo  0.800000  0.300000  0.150000
Ta2130  Ta  0.825000  0.325000  0.175000
Mo2142  Mo  0.850000  0.300000  0.150000
Mo2143  Mo  0.875000  0.325000  0.175000
W2121  W  0.900000  0.300000  0.150000
Mo2144  Mo  0.925000  0.325000  0.175000
Nb2164  Nb  0.950000  0.300000  0.150000
Ta2131  Ta  0.975000  0.325000  0.175000
Nb2165  Nb  0.500000 -0.000000  0.200000
Nb2166  Nb  0.525000  0.025000  0.225000
Mo2145  Mo  0.550000 -0.000000  0.200000
W2122  W  0.575000  0.025000  0.225000
Mo2146  Mo  0.600000 -0.000000  0.200000
Ta2132  Ta  0.625000  0.025000  0.225000
Ta2133  Ta  0.650000 -0.000000  0.200000
Mo2147  Mo  0.675000  0.025000  0.225000
Mo2148  Mo  0.700000 -0.000000  0.200000
W2123  W  0.725000  0.025000  0.225000
W2124  W  0.750000 -0.000000  0.200000
Ta2134  Ta  0.775000  0.025000  0.225000
W2125  W  0.800000 -0.000000  0.200000
Nb2167  Nb  0.825000  0.025000  0.225000
Mo2149  Mo  0.850000 -0.000000  0.200000
Mo2150  Mo  0.875000  0.025000  0.225000
Ta2135  Ta  0.900000 -0.000000  0.200000
Mo2151  Mo  0.925000  0.025000  0.225000
Mo2152  Mo  0.950000 -0.000000  0.200000
W2126  W  0.975000  0.025000  0.225000
W2127  W  0.500000  0.050000  0.200000
Nb2168  Nb  0.525000  0.075000  0.225000
Nb2169  Nb  0.550000  0.050000  0.200000
Ta2136  Ta  0.575000  0.075000  0.225000
W2128  W  0.600000  0.050000  0.200000
W2129  W  0.625000  0.075000  0.225000
W2130  W  0.650000  0.050000  0.200000
Nb2170  Nb  0.675000  0.075000  0.225000
Ta2137  Ta  0.700000  0.050000  0.200000
Mo2153  Mo  0.725000  0.075000  0.225000
Mo2154  Mo  0.750000  0.050000  0.200000
Ta2138  Ta  0.775000  0.075000  0.225000
Mo2155  Mo  0.800000  0.050000  0.200000
Nb2171  Nb  0.825000  0.075000  0.225000
Mo2156  Mo  0.850000  0.050000  0.200000
Mo2157  Mo  0.875000  0.075000  0.225000
Ta2139  Ta  0.900000  0.050000  0.200000
Nb2172  Nb  0.925000  0.075000  0.225000
Ta2140  Ta  0.950000  0.050000  0.200000
Ta2141  Ta  0.975000  0.075000  0.225000
Nb2173  Nb  0.500000  0.100000  0.200000
Nb2174  Nb  0.525000  0.125000  0.225000
Ta2142  Ta  0.550000  0.100000  0.200000
Ta2143  Ta  0.575000  0.125000  0.225000
Ta2144  Ta  0.600000  0.100000  0.200000
Ta2145  Ta  0.625000  0.125000  0.225000
Mo2158  Mo  0.650000  0.100000  0.200000
W2131  W  0.675000  0.125000  0.225000
Nb2175  Nb  0.700000  0.100000  0.200000
W2132  W  0.725000  0.125000  0.225000
Ta2146  Ta  0.750000  0.100000  0.200000
Nb2176  Nb  0.775000  0.125000  0.225000
Nb2177  Nb  0.800000  0.100000  0.200000
Ta2147  Ta  0.825000  0.125000  0.225000
Ta2148  Ta  0.850000  0.100000  0.200000
W2133  W  0.875000  0.125000  0.225000
Mo2159  Mo  0.900000  0.100000  0.200000
W2134  W  0.925000  0.125000  0.225000
Ta2149  Ta  0.950000  0.100000  0.200000
Mo2160  Mo  0.975000  0.125000  0.225000
Ta2150  Ta  0.500000  0.150000  0.200000
Nb2178  Nb  0.525000  0.175000  0.225000
Ta2151  Ta  0.550000  0.150000  0.200000
W2135  W  0.575000  0.175000  0.225000
Nb2179  Nb  0.600000  0.150000  0.200000
Ta2152  Ta  0.625000  0.175000  0.225000
Mo2161  Mo  0.650000  0.150000  0.200000
Ta2153  Ta  0.675000  0.175000  0.225000
Ta2154  Ta  0.700000  0.150000  0.200000
Nb2180  Nb  0.725000  0.175000  0.225000
Mo2162  Mo  0.750000  0.150000  0.200000
W2136  W  0.775000  0.175000  0.225000
Ta2155  Ta  0.800000  0.150000  0.200000
Nb2181  Nb  0.825000  0.175000  0.225000
Ta2156  Ta  0.850000  0.150000  0.200000
Nb2182  Nb  0.875000  0.175000  0.225000
Ta2157  Ta  0.900000  0.150000  0.200000
Nb2183  Nb  0.925000  0.175000  0.225000
Nb2184  Nb  0.950000  0.150000  0.200000
W2137  W  0.975000  0.175000  0.225000
W2138  W  0.500000  0.200000  0.200000
Mo2163  Mo  0.525000  0.225000  0.225000
Ta2158  Ta  0.550000  0.200000  0.200000
W2139  W  0.575000  0.225000  0.225000
Mo2164  Mo  0.600000  0.200000  0.200000
Mo2165  Mo  0.625000  0.225000  0.225000
Nb2185  Nb  0.650000  0.200000  0.200000
W2140  W  0.675000  0.225000  0.225000
Mo2166  Mo  0.700000  0.200000  0.200000
W2141  W  0.725000  0.225000  0.225000
Nb2186  Nb  0.750000  0.200000  0.200000
Nb2187  Nb  0.775000  0.225000  0.225000
Ta2159  Ta  0.800000  0.200000  0.200000
W2142  W  0.825000  0.225000  0.225000
Mo2167  Mo  0.850000  0.200000  0.200000
W2143  W  0.875000  0.225000  0.225000
Nb2188  Nb  0.900000  0.200000  0.200000
Mo2168  Mo  0.925000  0.225000  0.225000
W2144  W  0.950000  0.200000  0.200000
Nb2189  Nb  0.975000  0.225000  0.225000
Ta2160  Ta  0.500000  0.250000  0.200000
Ta2161  Ta  0.525000  0.275000  0.225000
W2145  W  0.550000  0.250000  0.200000
Mo2169  Mo  0.575000  0.275000  0.225000
Mo2170  Mo  0.600000  0.250000  0.200000
W2146  W  0.625000  0.275000  0.225000
W2147  W  0.650000  0.250000  0.200000
Nb2190  Nb  0.675000  0.275000  0.225000
Ta2162  Ta  0.700000  0.250000  0.200000
Ta2163  Ta  0.725000  0.275000  0.225000
W2148  W  0.750000  0.250000  0.200000
Ta2164  Ta  0.775000  0.275000  0.225000
W2149  W  0.800000  0.250000  0.200000
Mo2171  Mo  0.825000  0.275000  0.225000
Ta2165  Ta  0.850000  0.250000  0.200000
Ta2166  Ta  0.875000  0.275000  0.225000
W2150  W  0.900000  0.250000  0.200000
Mo2172  Mo  0.925000  0.275000  0.225000
Nb2191  Nb  0.950000  0.250000  0.200000
Ta2167  Ta  0.975000  0.275000  0.225000
Mo2173  Mo  0.500000  0.300000  0.200000
Ta2168  Ta  0.525000  0.325000  0.225000
W2151  W  0.550000  0.300000  0.200000
W2152  W  0.575000  0.325000  0.225000
W2153  W  0.600000  0.300000  0.200000
Ta2169  Ta  0.625000  0.325000  0.225000
Nb2192  Nb  0.650000  0.300000  0.200000
Ta2170  Ta  0.675000  0.325000  0.225000
Ta2171  Ta  0.700000  0.300000  0.200000
W2154  W  0.725000  0.325000  0.225000
Nb2193  Nb  0.750000  0.300000  0.200000
Mo2174  Mo  0.775000  0.325000  0.225000
Nb2194  Nb  0.800000  0.300000  0.200000
W2155  W  0.825000  0.325000  0.225000
Mo2175  Mo  0.850000  0.300000  0.200000
Ta2172  Ta  0.875000  0.325000  0.225000
W2156  W  0.900000  0.300000  0.200000
Ta2173  Ta  0.925000  0.325000  0.225000
Nb2195  Nb  0.950000  0.300000  0.200000
W2157  W  0.975000  0.325000  0.225000
W2158  W  0.500000 -0.000000  0.250000
Ta2174  Ta  0.525000  0.025000  0.275000
Mo2176  Mo  0.550000 -0.000000  0.250000
Nb2196  Nb  0.575000  0.025000  0.275000
W2159  W  0.600000 -0.000000  0.250000
Ta2175  Ta  0.625000  0.025000  0.275000
Mo2177  Mo  0.650000 -0.000000  0.250000
W2160  W  0.675000  0.025000  0.275000
Mo2178  Mo  0.700000 -0.000000  0.250000
Nb2197  Nb  0.725000  0.025000  0.275000
W2161  W  0.750000 -0.000000  0.250000
Ta2176  Ta  0.775000  0.025000  0.275000
Nb2198  Nb  0.800000 -0.000000  0.250000
W2162  W  0.825000  0.025000  0.275000
W2163  W  0.850000 -0.000000  0.250000
Mo2179  Mo  0.875000  0.025000  0.275000
W2164  W  0.900000 -0.000000  0.250000
Mo2180  Mo  0.925000  0.025000  0.275000
Mo2181  Mo  0.950000 -0.000000  0.250000
W2165  W  0.975000  0.025000  0.275000
W2166  W  0.500000  0.050000  0.250000
W2167  W  0.525000  0.075000  0.275000
Ta2177  Ta  0.550000  0.050000  0.250000
W2168  W  0.575000  0.075000  0.275000
W2169  W  0.600000  0.050000  0.250000
Ta2178  Ta  0.625000  0.075000  0.275000
Ta2179  Ta  0.650000  0.050000  0.250000
W2170  W  0.675000  0.075000  0.275000
W2171  W  0.700000  0.050000  0.250000
Nb2199  Nb  0.725000  0.075000  0.275000
W2172  W  0.750000  0.050000  0.250000
W2173  W  0.775000  0.075000  0.275000
Ta2180  Ta  0.800000  0.050000  0.250000
Mo2182  Mo  0.825000  0.075000  0.275000
W2174  W  0.850000  0.050000  0.250000
Nb2200  Nb  0.875000  0.075000  0.275000
W2175  W  0.900000  0.050000  0.250000
Nb2201  Nb  0.925000  0.075000  0.275000
Mo2183  Mo  0.950000  0.050000  0.250000
Mo2184  Mo  0.975000  0.075000  0.275000
Ta2181  Ta  0.500000  0.100000  0.250000
W2176  W  0.525000  0.125000  0.275000
Ta2182  Ta  0.550000  0.100000  0.250000
Ta2183  Ta  0.575000  0.125000  0.275000
Ta2184  Ta  0.600000  0.100000  0.250000
Ta2185  Ta  0.625000  0.125000  0.275000
W2177  W  0.650000  0.100000  0.250000
Mo2185  Mo  0.675000  0.125000  0.275000
W2178  W  0.700000  0.100000  0.250000
W2179  W  0.725000  0.125000  0.275000
Mo2186  Mo  0.750000  0.100000  0.250000
Ta2186  Ta  0.775000  0.125000  0.275000
Ta2187  Ta  0.800000  0.100000  0.250000
W2180  W  0.825000  0.125000  0.275000
W2181  W  0.850000  0.100000  0.250000
Ta2188  Ta  0.875000  0.125000  0.275000
Mo2187  Mo  0.900000  0.100000  0.250000
Ta2189  Ta  0.925000  0.125000  0.275000
Nb2202  Nb  0.950000  0.100000  0.250000
Ta2190  Ta  0.975000  0.125000  0.275000
W2182  W  0.500000  0.150000  0.250000
Ta2191  Ta  0.525000  0.175000  0.275000
Mo2188  Mo  0.550000  0.150000  0.250000
Nb2203  Nb  0.575000  0.175000  0.275000
Nb2204  Nb  0.600000  0.150000  0.250000
Ta2192  Ta  0.625000  0.175000  0.275000
Ta2193  Ta  0.650000  0.150000  0.250000
Nb2205  Nb  0.675000  0.175000  0.275000
W2183  W  0.700000  0.150000  0.250000
Ta2194  Ta  0.725000  0.175000  0.275000
Ta2195  Ta  0.750000  0.150000  0.250000
W2184  W  0.775000  0.175000  0.275000
Mo2189  Mo  0.800000  0.150000  0.250000
W2185  W  0.825000  0.175000  0.275000
Mo2190  Mo  0.850000  0.150000  0.250000
Nb2206  Nb  0.875000  0.175000  0.275000
Ta2196  Ta  0.900000  0.150000  0.250000
Mo2191  Mo  0.925000  0.175000  0.275000
Ta2197  Ta  0.950000  0.150000  0.250000
Mo2192  Mo  0.975000  0.175000  0.275000
Mo2193  Mo  0.500000  0.200000  0.250000
W2186  W  0.525000  0.225000  0.275000
W2187  W  0.550000  0.200000  0.250000
W2188  W  0.575000  0.225000  0.275000
Nb2207  Nb  0.600000  0.200000  0.250000
Ta2198  Ta  0.625000  0.225000  0.275000
Nb2208  Nb  0.650000  0.200000  0.250000
W2189  W  0.675000  0.225000  0.275000
Ta2199  Ta  0.700000  0.200000  0.250000
W2190  W  0.725000  0.225000  0.275000
Ta2200  Ta  0.750000  0.200000  0.250000
Mo2194  Mo  0.775000  0.225000  0.275000
Mo2195  Mo  0.800000  0.200000  0.250000
W2191  W  0.825000  0.225000  0.275000
W2192  W  0.850000  0.200000  0.250000
Mo2196  Mo  0.875000  0.225000  0.275000
W2193  W  0.900000  0.200000  0.250000
Nb2209  Nb  0.925000  0.225000  0.275000
Ta2201  Ta  0.950000  0.200000  0.250000
Nb2210  Nb  0.975000  0.225000  0.275000
Nb2211  Nb  0.500000  0.250000  0.250000
Nb2212  Nb  0.525000  0.275000  0.275000
Nb2213  Nb  0.550000  0.250000  0.250000
Ta2202  Ta  0.575000  0.275000  0.275000
Mo2197  Mo  0.600000  0.250000  0.250000
Ta2203  Ta  0.625000  0.275000  0.275000
Mo2198  Mo  0.650000  0.250000  0.250000
Ta2204  Ta  0.675000  0.275000  0.275000
Mo2199  Mo  0.700000  0.250000  0.250000
Ta2205  Ta  0.725000  0.275000  0.275000
W2194  W  0.750000  0.250000  0.250000
Mo2200  Mo  0.775000  0.275000  0.275000
W2195  W  0.800000  0.250000  0.250000
Ta2206  Ta  0.825000  0.275000  0.275000
Mo2201  Mo  0.850000  0.250000  0.250000
Mo2202  Mo  0.875000  0.275000  0.275000
Mo2203  Mo  0.900000  0.250000  0.250000
Mo2204  Mo  0.925000  0.275000  0.275000
Mo2205  Mo  0.950000  0.250000  0.250000
W2196  W  0.975000  0.275000  0.275000
Nb2214  Nb  0.500000  0.300000  0.250000
Nb2215  Nb  0.525000  0.325000  0.275000
Mo2206  Mo  0.550000  0.300000  0.250000
Mo2207  Mo  0.575000  0.325000  0.275000
W2197  W  0.600000  0.300000  0.250000
W2198  W  0.625000  0.325000  0.275000
Ta2207  Ta  0.650000  0.300000  0.250000
Ta2208  Ta  0.675000  0.325000  0.275000
Nb2216  Nb  0.700000  0.300000  0.250000
W2199  W  0.725000  0.325000  0.275000
Ta2209  Ta  0.750000  0.300000  0.250000
Nb2217  Nb  0.775000  0.325000  0.275000
W2200  W  0.800000  0.300000  0.250000
Mo2208  Mo  0.825000  0.325000  0.275000
Mo2209  Mo  0.850000  0.300000  0.250000
W2201  W  0.875000  0.325000  0.275000
Nb2218  Nb  0.900000  0.300000  0.250000
Mo2210  Mo  0.925000  0.325000  0.275000
Nb2219  Nb  0.950000  0.300000  0.250000
Ta2210  Ta  0.975000  0.325000  0.275000
W2202  W  0.500000 -0.000000  0.300000
Nb2220  Nb  0.525000  0.025000  0.325000
Ta2211  Ta  0.550000 -0.000000  0.300000
W2203  W  0.575000  0.025000  0.325000
W2204  W  0.600000 -0.000000  0.300000
W2205  W  0.625000  0.025000  0.325000
W2206  W  0.650000 -0.000000  0.300000
Mo2211  Mo  0.675000  0.025000  0.325000
Nb2221  Nb  0.700000 -0.000000  0.300000
Mo2212  Mo  0.725000  0.025000  0.325000
Nb2222  Nb  0.750000 -0.000000  0.300000
Mo2213  Mo  0.775000  0.025000  0.325000
Nb2223  Nb  0.800000 -0.000000  0.300000
Nb2224  Nb  0.825000  0.025000  0.325000
W2207  W  0.850000 -0.000000  0.300000
Mo2214  Mo  0.875000  0.025000  0.325000
Nb2225  Nb  0.900000 -0.000000  0.300000
Ta2212  Ta  0.925000  0.025000  0.325000
W2208  W  0.950000 -0.000000  0.300000
Nb2226  Nb  0.975000  0.025000  0.325000
Nb2227  Nb  0.500000  0.050000  0.300000
Ta2213  Ta  0.525000  0.075000  0.325000
Ta2214  Ta  0.550000  0.050000  0.300000
Ta2215  Ta  0.575000  0.075000  0.325000
Mo2215  Mo  0.600000  0.050000  0.300000
W2209  W  0.625000  0.075000  0.325000
W2210  W  0.650000  0.050000  0.300000
Ta2216  Ta  0.675000  0.075000  0.325000
Nb2228  Nb  0.700000  0.050000  0.300000
Nb2229  Nb  0.725000  0.075000  0.325000
W2211  W  0.750000  0.050000  0.300000
Ta2217  Ta  0.775000  0.075000  0.325000
Nb2230  Nb  0.800000  0.050000  0.300000
Ta2218  Ta  0.825000  0.075000  0.325000
W2212  W  0.850000  0.050000  0.300000
W2213  W  0.875000  0.075000  0.325000
Ta2219  Ta  0.900000  0.050000  0.300000
Ta2220  Ta  0.925000  0.075000  0.325000
W2214  W  0.950000  0.050000  0.300000
Ta2221  Ta  0.975000  0.075000  0.325000
Mo2216  Mo  0.500000  0.100000  0.300000
Ta2222  Ta  0.525000  0.125000  0.325000
Nb2231  Nb  0.550000  0.100000  0.300000
Nb2232  Nb  0.575000  0.125000  0.325000
Mo2217  Mo  0.600000  0.100000  0.300000
Mo2218  Mo  0.625000  0.125000  0.325000
Nb2233  Nb  0.650000  0.100000  0.300000
Ta2223  Ta  0.675000  0.125000  0.325000
Nb2234  Nb  0.700000  0.100000  0.300000
Ta2224  Ta  0.725000  0.125000  0.325000
Mo2219  Mo  0.750000  0.100000  0.300000
Mo2220  Mo  0.775000  0.125000  0.325000
Nb2235  Nb  0.800000  0.100000  0.300000
Ta2225  Ta  0.825000  0.125000  0.325000
Ta2226  Ta  0.850000  0.100000  0.300000
Mo2221  Mo  0.875000  0.125000  0.325000
Mo2222  Mo  0.900000  0.100000  0.300000
Ta2227  Ta  0.925000  0.125000  0.325000
Ta2228  Ta  0.950000  0.100000  0.300000
W2215  W  0.975000  0.125000  0.325000
Mo2223  Mo  0.500000  0.150000  0.300000
W2216  W  0.525000  0.175000  0.325000
Mo2224  Mo  0.550000  0.150000  0.300000
W2217  W  0.575000  0.175000  0.325000
Ta2229  Ta  0.600000  0.150000  0.300000
Mo2225  Mo  0.625000  0.175000  0.325000
W2218  W  0.650000  0.150000  0.300000
Ta2230  Ta  0.675000  0.175000  0.325000
W2219  W  0.700000  0.150000  0.300000
Nb2236  Nb  0.725000  0.175000  0.325000
Nb2237  Nb  0.750000  0.150000  0.300000
W2220  W  0.775000  0.175000  0.325000
Mo2226  Mo  0.800000  0.150000  0.300000
Nb2238  Nb  0.825000  0.175000  0.325000
W2221  W  0.850000  0.150000  0.300000
Nb2239  Nb  0.875000  0.175000  0.325000
W2222  W  0.900000  0.150000  0.300000
Nb2240  Nb  0.925000  0.175000  0.325000
Nb2241  Nb  0.950000  0.150000  0.300000
W2223  W  0.975000  0.175000  0.325000
Nb2242  Nb  0.500000  0.200000  0.300000
W2224  W  0.525000  0.225000  0.325000
W2225  W  0.550000  0.200000  0.300000
W2226  W  0.575000  0.225000  0.325000
Mo2227  Mo  0.600000  0.200000  0.300000
Mo2228  Mo  0.625000  0.225000  0.325000
Ta2231  Ta  0.650000  0.200000  0.300000
W2227  W  0.675000  0.225000  0.325000
Nb2243  Nb  0.700000  0.200000  0.300000
Ta2232  Ta  0.725000  0.225000  0.325000
Nb2244  Nb  0.750000  0.200000  0.300000
Ta2233  Ta  0.775000  0.225000  0.325000
W2228  W  0.800000  0.200000  0.300000
Nb2245  Nb  0.825000  0.225000  0.325000
W2229  W  0.850000  0.200000  0.300000
Ta2234  Ta  0.875000  0.225000  0.325000
W2230  W  0.900000  0.200000  0.300000
Ta2235  Ta  0.925000  0.225000  0.325000
Mo2229  Mo  0.950000  0.200000  0.300000
Ta2236  Ta  0.975000  0.225000  0.325000
Mo2230  Mo  0.500000  0.250000  0.300000
Mo2231  Mo  0.525000  0.275000  0.325000
Nb2246  Nb  0.550000  0.250000  0.300000
W2231  W  0.575000  0.275000  0.325000
Mo2232  Mo  0.600000  0.250000  0.300000
Mo2233  Mo  0.625000  0.275000  0.325000
W2232  W  0.650000  0.250000  0.300000
W2233  W  0.675000  0.275000  0.325000
Ta2237  Ta  0.700000  0.250000  0.300000
W2234  W  0.725000  0.275000  0.325000
Ta2238  Ta  0.750000  0.250000  0.300000
Ta2239  Ta  0.775000  0.275000  0.325000
W2235  W  0.800000  0.250000  0.300000
Ta2240  Ta  0.825000  0.275000  0.325000
Mo2234  Mo  0.850000  0.250000  0.300000
Ta2241  Ta  0.875000  0.275000  0.325000
W2236  W  0.900000  0.250000  0.300000
Mo2235  Mo  0.925000  0.275000  0.325000
Mo2236  Mo  0.950000  0.250000  0.300000
W2237  W  0.975000  0.275000  0.325000
Mo2237  Mo  0.500000  0.300000  0.300000
Mo2238  Mo  0.525000  0.325000  0.325000
W2238  W  0.550000  0.300000  0.300000
Ta2242  Ta  0.575000  0.325000  0.325000
W2239  W  0.600000  0.300000  0.300000
Nb2247  Nb  0.625000  0.325000  0.325000
Nb2248  Nb  0.650000  0.300000  0.300000
W2240  W  0.675000  0.325000  0.325000
W2241  W  0.700000  0.300000  0.300000
W2242  W  0.725000  0.325000  0.325000
Mo2239  Mo  0.750000  0.300000  0.300000
Ta2243  Ta  0.775000  0.325000  0.325000
Ta2244  Ta  0.800000  0.300000  0.300000
W2243  W  0.825000  0.325000  0.325000
Ta2245  Ta  0.850000  0.300000  0.300000
Ta2246  Ta  0.875000  0.325000  0.325000
Nb2249  Nb  0.900000  0.300000  0.300000
Mo2240  Mo  0.925000  0.325000  0.325000
W2244  W  0.950000  0.300000  0.300000
Nb2250  Nb  0.975000  0.325000  0.325000
Nb2251  Nb  0.500000 -0.000000  0.350000
Ta2247  Ta  0.525000  0.025000  0.375000
Nb2252  Nb  0.550000 -0.000000  0.350000
Mo2241  Mo  0.575000  0.025000  0.375000
Nb2253  Nb  0.600000 -0.000000  0.350000
Ta2248  Ta  0.625000  0.025000  0.375000
Mo2242  Mo  0.650000 -0.000000  0.350000
W2245  W  0.675000  0.025000  0.375000
Ta2249  Ta  0.700000 -0.000000  0.350000
Ta2250  Ta  0.725000  0.025000  0.375000
W2246  W  0.750000 -0.000000  0.350000
Ta2251  Ta  0.775000  0.025000  0.375000
Mo2243  Mo  0.800000 -0.000000  0.350000
Nb2254  Nb  0.825000  0.025000  0.375000
Mo2244  Mo  0.850000 -0.000000  0.350000
W2247  W  0.875000  0.025000  0.375000
Mo2245  Mo  0.900000 -0.000000  0.350000
Mo2246  Mo  0.925000  0.025000  0.375000
Ta2252  Ta  0.950000 -0.000000  0.350000
Mo2247  Mo  0.975000  0.025000  0.375000
Nb2255  Nb  0.500000  0.050000  0.350000
Nb2256  Nb  0.525000  0.075000  0.375000
Mo2248  Mo  0.550000  0.050000  0.350000
Mo2249  Mo  0.575000  0.075000  0.375000
Ta2253  Ta  0.600000  0.050000  0.350000
Nb2257  Nb  0.625000  0.075000  0.375000
Nb2258  Nb  0.650000  0.050000  0.350000
W2248  W  0.675000  0.075000  0.375000
W2249  W  0.700000  0.050000  0.350000
Ta2254  Ta  0.725000  0.075000  0.375000
Ta2255  Ta  0.750000  0.050000  0.350000
W2250  W  0.775000  0.075000  0.375000
Mo2250  Mo  0.800000  0.050000  0.350000
Mo2251  Mo  0.825000  0.075000  0.375000
Ta2256  Ta  0.850000  0.050000  0.350000
Ta2257  Ta  0.875000  0.075000  0.375000
Mo2252  Mo  0.900000  0.050000  0.350000
W2251  W  0.925000  0.075000  0.375000
Ta2258  Ta  0.950000  0.050000  0.350000
Nb2259  Nb  0.975000  0.075000  0.375000
Mo2253  Mo  0.500000  0.100000  0.350000
Ta2259  Ta  0.525000  0.125000  0.375000
Nb2260  Nb  0.550000  0.100000  0.350000
Mo2254  Mo  0.575000  0.125000  0.375000
Ta2260  Ta  0.600000  0.100000  0.350000
Nb2261  Nb  0.625000  0.125000  0.375000
Mo2255  Mo  0.650000  0.100000  0.350000
Nb2262  Nb  0.675000  0.125000  0.375000
W2252  W  0.700000  0.100000  0.350000
Ta2261  Ta  0.725000  0.125000  0.375000
Ta2262  Ta  0.750000  0.100000  0.350000
Nb2263  Nb  0.775000  0.125000  0.375000
W2253  W  0.800000  0.100000  0.350000
Mo2256  Mo  0.825000  0.125000  0.375000
Mo2257  Mo  0.850000  0.100000  0.350000
Nb2264  Nb  0.875000  0.125000  0.375000
Ta2263  Ta  0.900000  0.100000  0.350000
W2254  W  0.925000  0.125000  0.375000
Nb2265  Nb  0.950000  0.100000  0.350000
Nb2266  Nb  0.975000  0.125000  0.375000
Mo2258  Mo  0.500000  0.150000  0.350000
Nb2267  Nb  0.525000  0.175000  0.375000
Nb2268  Nb  0.550000  0.150000  0.350000
Nb2269  Nb  0.575000  0.175000  0.375000
Ta2264  Ta  0.600000  0.150000  0.350000
Ta2265  Ta  0.625000  0.175000  0.375000
Ta2266  Ta  0.650000  0.150000  0.350000
Nb2270  Nb  0.675000  0.175000  0.375000
Nb2271  Nb  0.700000  0.150000  0.350000
W2255  W  0.725000  0.175000  0.375000
Mo2259  Mo  0.750000  0.150000  0.350000
Nb2272  Nb  0.775000  0.175000  0.375000
Ta2267  Ta  0.800000  0.150000  0.350000
Nb2273  Nb  0.825000  0.175000  0.375000
Nb2274  Nb  0.850000  0.150000  0.350000
Mo2260  Mo  0.875000  0.175000  0.375000
Mo2261  Mo  0.900000  0.150000  0.350000
Nb2275  Nb  0.925000  0.175000  0.375000
Ta2268  Ta  0.950000  0.150000  0.350000
Ta2269  Ta  0.975000  0.175000  0.375000
Nb2276  Nb  0.500000  0.200000  0.350000
W2256  W  0.525000  0.225000  0.375000
Nb2277  Nb  0.550000  0.200000  0.350000
W2257  W  0.575000  0.225000  0.375000
Ta2270  Ta  0.600000  0.200000  0.350000
Nb2278  Nb  0.625000  0.225000  0.375000
Mo2262  Mo  0.650000  0.200000  0.350000
Ta2271  Ta  0.675000  0.225000  0.375000
Nb2279  Nb  0.700000  0.200000  0.350000
Mo2263  Mo  0.725000  0.225000  0.375000
Nb2280  Nb  0.750000  0.200000  0.350000
Mo2264  Mo  0.775000  0.225000  0.375000
Nb2281  Nb  0.800000  0.200000  0.350000
Ta2272  Ta  0.825000  0.225000  0.375000
Mo2265  Mo  0.850000  0.200000  0.350000
Ta2273  Ta  0.875000  0.225000  0.375000
W2258  W  0.900000  0.200000  0.350000
Nb2282  Nb  0.925000  0.225000  0.375000
W2259  W  0.950000  0.200000  0.350000
Mo2266  Mo  0.975000  0.225000  0.375000
Mo2267  Mo  0.500000  0.250000  0.350000
Mo2268  Mo  0.525000  0.275000  0.375000
Nb2283  Nb  0.550000  0.250000  0.350000
Nb2284  Nb  0.575000  0.275000  0.375000
Nb2285  Nb  0.600000  0.250000  0.350000
Ta2274  Ta  0.625000  0.275000  0.375000
W2260  W  0.650000  0.250000  0.350000
Ta2275  Ta  0.675000  0.275000  0.375000
W2261  W  0.700000  0.250000  0.350000
Mo2269  Mo  0.725000  0.275000  0.375000
Mo2270  Mo  0.750000  0.250000  0.350000
W2262  W  0.775000  0.275000  0.375000
W2263  W  0.800000  0.250000  0.350000
W2264  W  0.825000  0.275000  0.375000
W2265  W  0.850000  0.250000  0.350000
Nb2286  Nb  0.875000  0.275000  0.375000
W2266  W  0.900000  0.250000  0.350000
Mo2271  Mo  0.925000  0.275000  0.375000
W2267  W  0.950000  0.250000  0.350000
W2268  W  0.975000  0.275000  0.375000
Nb2287  Nb  0.500000  0.300000  0.350000
Nb2288  Nb  0.525000  0.325000  0.375000
Ta2276  Ta  0.550000  0.300000  0.350000
Mo2272  Mo  0.575000  0.325000  0.375000
Ta2277  Ta  0.600000  0.300000  0.350000
W2269  W  0.625000  0.325000  0.375000
Nb2289  Nb  0.650000  0.300000  0.350000
Mo2273  Mo  0.675000  0.325000  0.375000
Nb2290  Nb  0.700000  0.300000  0.350000
Ta2278  Ta  0.725000  0.325000  0.375000
Ta2279  Ta  0.750000  0.300000  0.350000
Ta2280  Ta  0.775000  0.325000  0.375000
Ta2281  Ta  0.800000  0.300000  0.350000
Ta2282  Ta  0.825000  0.325000  0.375000
Mo2274  Mo  0.850000  0.300000  0.350000
W2270  W  0.875000  0.325000  0.375000
Nb2291  Nb  0.900000  0.300000  0.350000
Ta2283  Ta  0.925000  0.325000  0.375000
Ta2284  Ta  0.950000  0.300000  0.350000
Nb2292  Nb  0.975000  0.325000  0.375000
W2271  W  0.500000 -0.000000  0.400000
Mo2275  Mo  0.525000  0.025000  0.425000
W2272  W  0.550000 -0.000000  0.400000
Mo2276  Mo  0.575000  0.025000  0.425000
Ta2285  Ta  0.600000 -0.000000  0.400000
Nb2293  Nb  0.625000  0.025000  0.425000
W2273  W  0.650000 -0.000000  0.400000
Mo2277  Mo  0.675000  0.025000  0.425000
Mo2278  Mo  0.700000 -0.000000  0.400000
Nb2294  Nb  0.725000  0.025000  0.425000
W2274  W  0.750000 -0.000000  0.400000
Ta2286  Ta  0.775000  0.025000  0.425000
Ta2287  Ta  0.800000 -0.000000  0.400000
Nb2295  Nb  0.825000  0.025000  0.425000
Ta2288  Ta  0.850000 -0.000000  0.400000
Mo2279  Mo  0.875000  0.025000  0.425000
Nb2296  Nb  0.900000 -0.000000  0.400000
W2275  W  0.925000  0.025000  0.425000
W2276  W  0.950000 -0.000000  0.400000
W2277  W  0.975000  0.025000  0.425000
W2278  W  0.500000  0.050000  0.400000
Ta2289  Ta  0.525000  0.075000  0.425000
Nb2297  Nb  0.550000  0.050000  0.400000
W2279  W  0.575000  0.075000  0.425000
Nb2298  Nb  0.600000  0.050000  0.400000
Ta2290  Ta  0.625000  0.075000  0.425000
Mo2280  Mo  0.650000  0.050000  0.400000
W2280  W  0.675000  0.075000  0.425000
Nb2299  Nb  0.700000  0.050000  0.400000
Ta2291  Ta  0.725000  0.075000  0.425000
Mo2281  Mo  0.750000  0.050000  0.400000
Mo2282  Mo  0.775000  0.075000  0.425000
Ta2292  Ta  0.800000  0.050000  0.400000
Ta2293  Ta  0.825000  0.075000  0.425000
Mo2283  Mo  0.850000  0.050000  0.400000
Mo2284  Mo  0.875000  0.075000  0.425000
Ta2294  Ta  0.900000  0.050000  0.400000
W2281  W  0.925000  0.075000  0.425000
Mo2285  Mo  0.950000  0.050000  0.400000
W2282  W  0.975000  0.075000  0.425000
Ta2295  Ta  0.500000  0.100000  0.400000
Mo2286  Mo  0.525000  0.125000  0.425000
Nb2300  Nb  0.550000  0.100000  0.400000
W2283  W  0.575000  0.125000  0.425000
Mo2287  Mo  0.600000  0.100000  0.400000
W2284  W  0.625000  0.125000  0.425000
Ta2296  Ta  0.650000  0.100000  0.400000
Nb2301  Nb  0.675000  0.125000  0.425000
Nb2302  Nb  0.700000  0.100000  0.400000
Nb2303  Nb  0.725000  0.125000  0.425000
Mo2288  Mo  0.750000  0.100000  0.400000
W2285  W  0.775000  0.125000  0.425000
Nb2304  Nb  0.800000  0.100000  0.400000
W2286  W  0.825000  0.125000  0.425000
Ta2297  Ta  0.850000  0.100000  0.400000
Nb2305  Nb  0.875000  0.125000  0.425000
Ta2298  Ta  0.900000  0.100000  0.400000
Mo2289  Mo  0.925000  0.125000  0.425000
W2287  W  0.950000  0.100000  0.400000
W2288  W  0.975000  0.125000  0.425000
W2289  W  0.500000  0.150000  0.400000
W2290  W  0.525000  0.175000  0.425000
Nb2306  Nb  0.550000  0.150000  0.400000
W2291  W  0.575000  0.175000  0.425000
Ta2299  Ta  0.600000  0.150000  0.400000
Nb2307  Nb  0.625000  0.175000  0.425000
Mo2290  Mo  0.650000  0.150000  0.400000
W2292  W  0.675000  0.175000  0.425000
Ta2300  Ta  0.700000  0.150000  0.400000
Nb2308  Nb  0.725000  0.175000  0.425000
Mo2291  Mo  0.750000  0.150000  0.400000
Mo2292  Mo  0.775000  0.175000  0.425000
W2293  W  0.800000  0.150000  0.400000
Mo2293  Mo  0.825000  0.175000  0.425000
W2294  W  0.850000  0.150000  0.400000
Mo2294  Mo  0.875000  0.175000  0.425000
W2295  W  0.900000  0.150000  0.400000
Ta2301  Ta  0.925000  0.175000  0.425000
Ta2302  Ta  0.950000  0.150000  0.400000
W2296  W  0.975000  0.175000  0.425000
W2297  W  0.500000  0.200000  0.400000
W2298  W  0.525000  0.225000  0.425000
Nb2309  Nb  0.550000  0.200000  0.400000
Ta2303  Ta  0.575000  0.225000  0.425000
W2299  W  0.600000  0.200000  0.400000
W2300  W  0.625000  0.225000  0.425000
Ta2304  Ta  0.650000  0.200000  0.400000
W2301  W  0.675000  0.225000  0.425000
Ta2305  Ta  0.700000  0.200000  0.400000
Mo2295  Mo  0.725000  0.225000  0.425000
W2302  W  0.750000  0.200000  0.400000
Mo2296  Mo  0.775000  0.225000  0.425000
Mo2297  Mo  0.800000  0.200000  0.400000
W2303  W  0.825000  0.225000  0.425000
W2304  W  0.850000  0.200000  0.400000
W2305  W  0.875000  0.225000  0.425000
W2306  W  0.900000  0.200000  0.400000
Ta2306  Ta  0.925000  0.225000  0.425000
Mo2298  Mo  0.950000  0.200000  0.400000
Ta2307  Ta  0.975000  0.225000  0.425000
Mo2299  Mo  0.500000  0.250000  0.400000
Nb2310  Nb  0.525000  0.275000  0.425000
W2307  W  0.550000  0.250000  0.400000
Ta2308  Ta  0.575000  0.275000  0.425000
Mo2300  Mo  0.600000  0.250000  0.400000
Mo2301  Mo  0.625000  0.275000  0.425000
Nb2311  Nb  0.650000  0.250000  0.400000
Mo2302  Mo  0.675000  0.275000  0.425000
Nb2312  Nb  0.700000  0.250000  0.400000
W2308  W  0.725000  0.275000  0.425000
Ta2309  Ta  0.750000  0.250000  0.400000
W2309  W  0.775000  0.275000  0.425000
Nb2313  Nb  0.800000  0.250000  0.400000
Ta2310  Ta  0.825000  0.275000  0.425000
Mo2303  Mo  0.850000  0.250000  0.400000
Nb2314  Nb  0.875000  0.275000  0.425000
Mo2304  Mo  0.900000  0.250000  0.400000
Ta2311  Ta  0.925000  0.275000  0.425000
Ta2312  Ta  0.950000  0.250000  0.400000
Mo2305  Mo  0.975000  0.275000  0.425000
Ta2313  Ta  0.500000  0.300000  0.400000
Ta2314  Ta  0.525000  0.325000  0.425000
Ta2315  Ta  0.550000  0.300000  0.400000
Ta2316  Ta  0.575000  0.325000  0.425000
Mo2306  Mo  0.600000  0.300000  0.400000
W2310  W  0.625000  0.325000  0.425000
Ta2317  Ta  0.650000  0.300000  0.400000
Nb2315  Nb  0.675000  0.325000  0.425000
Mo2307  Mo  0.700000  0.300000  0.400000
Mo2308  Mo  0.725000  0.325000  0.425000
W2311  W  0.750000  0.300000  0.400000
Ta2318  Ta  0.775000  0.325000  0.425000
W2312  W  0.800000  0.300000  0.400000
Nb2316  Nb  0.825000  0.325000  0.425000
Mo2309  Mo  0.850000  0.300000  0.400000
Mo2310  Mo  0.875000  0.325000  0.425000
W2313  W  0.900000  0.300000  0.400000
Nb2317  Nb  0.925000  0.325000  0.425000
Ta2319  Ta  0.950000  0.300000  0.400000
Mo2311  Mo  0.975000  0.325000  0.425000
Ta2320  Ta  0.500000 -0.000000  0.450000
Ta2321  Ta  0.525000  0.025000  0.475000
Ta2322  Ta  0.550000 -0.000000  0.450000
Nb2318  Nb  0.575000  0.025000  0.475000
Nb2319  Nb  0.600000 -0.000000  0.450000
Ta2323  Ta  0.625000  0.025000  0.475000
Nb2320  Nb  0.650000 -0.000000  0.450000
Nb2321  Nb  0.675000  0.025000  0.475000
Nb2322  Nb  0.700000 -0.000000  0.450000
W2314  W  0.725000  0.025000  0.475000
Mo2312  Mo  0.750000 -0.000000  0.450000
W2315  W  0.775000  0.025000  0.475000
W2316  W  0.800000 -0.000000  0.450000
Ta2324  Ta  0.825000  0.025000  0.475000
Ta2325  Ta  0.850000 -0.000000  0.450000
Nb2323  Nb  0.875000  0.025000  0.475000
Nb2324  Nb  0.900000 -0.000000  0.450000
W2317  W  0.925000  0.025000  0.475000
W2318  W  0.950000 -0.000000  0.450000
Mo2313  Mo  0.975000  0.025000  0.475000
Nb2325  Nb  0.500000  0.050000  0.450000
Nb2326  Nb  0.525000  0.075000  0.475000
Ta2326  Ta  0.550000  0.050000  0.450000
Nb2327  Nb  0.575000  0.075000  0.475000
W2319  W  0.600000  0.050000  0.450000
W2320  W  0.625000  0.075000  0.475000
Mo2314  Mo  0.650000  0.050000  0.450000
Nb2328  Nb  0.675000  0.075000  0.475000
Ta2327  Ta  0.700000  0.050000  0.450000
Ta2328  Ta  0.725000  0.075000  0.475000
Nb2329  Nb  0.750000  0.050000  0.450000
W2321  W  0.775000  0.075000  0.475000
Nb2330  Nb  0.800000  0.050000  0.450000
W2322  W  0.825000  0.075000  0.475000
Ta2329  Ta  0.850000  0.050000  0.450000
Nb2331  Nb  0.875000  0.075000  0.475000
Mo2315  Mo  0.900000  0.050000  0.450000
Mo2316  Mo  0.925000  0.075000  0.475000
Mo2317  Mo  0.950000  0.050000  0.450000
W2323  W  0.975000  0.075000  0.475000
W2324  W  0.500000  0.100000  0.450000
Mo2318  Mo  0.525000  0.125000  0.475000
Ta2330  Ta  0.550000  0.100000  0.450000
Mo2319  Mo  0.575000  0.125000  0.475000
Nb2332  Nb  0.600000  0.100000  0.450000
Ta2331  Ta  0.625000  0.125000  0.475000
W2325  W  0.650000  0.100000  0.450000
Ta2332  Ta  0.675000  0.125000  0.475000
Ta2333  Ta  0.700000  0.100000  0.450000
Ta2334  Ta  0.725000  0.125000  0.475000
Nb2333  Nb  0.750000  0.100000  0.450000
Ta2335  Ta  0.775000  0.125000  0.475000
W2326  W  0.800000  0.100000  0.450000
Ta2336  Ta  0.825000  0.125000  0.475000
W2327  W  0.850000  0.100000  0.450000
Nb2334  Nb  0.875000  0.125000  0.475000
Ta2337  Ta  0.900000  0.100000  0.450000
Ta2338  Ta  0.925000  0.125000  0.475000
Mo2320  Mo  0.950000  0.100000  0.450000
Nb2335  Nb  0.975000  0.125000  0.475000
Nb2336  Nb  0.500000  0.150000  0.450000
Mo2321  Mo  0.525000  0.175000  0.475000
Nb2337  Nb  0.550000  0.150000  0.450000
W2328  W  0.575000  0.175000  0.475000
Ta2339  Ta  0.600000  0.150000  0.450000
Ta2340  Ta  0.625000  0.175000  0.475000
Nb2338  Nb  0.650000  0.150000  0.450000
W2329  W  0.675000  0.175000  0.475000
Mo2322  Mo  0.700000  0.150000  0.450000
Nb2339  Nb  0.725000  0.175000  0.475000
Ta2341  Ta  0.750000  0.150000  0.450000
Mo2323  Mo  0.775000  0.175000  0.475000
Ta2342  Ta  0.800000  0.150000  0.450000
Ta2343  Ta  0.825000  0.175000  0.475000
W2330  W  0.850000  0.150000  0.450000
Mo2324  Mo  0.875000  0.175000  0.475000
Mo2325  Mo  0.900000  0.150000  0.450000
W2331  W  0.925000  0.175000  0.475000
Mo2326  Mo  0.950000  0.150000  0.450000
Mo2327  Mo  0.975000  0.175000  0.475000
W2332  W  0.500000  0.200000  0.450000
Mo2328  Mo  0.525000  0.225000  0.475000
W2333  W  0.550000  0.200000  0.450000
Nb2340  Nb  0.575000  0.225000  0.475000
Mo2329  Mo  0.600000  0.200000  0.450000
Mo2330  Mo  0.625000  0.225000  0.475000
Mo2331  Mo  0.650000  0.200000  0.450000
W2334  W  0.675000  0.225000  0.475000
Nb2341  Nb  0.700000  0.200000  0.450000
Ta2344  Ta  0.725000  0.225000  0.475000
Ta2345  Ta  0.750000  0.200000  0.450000
W2335  W  0.775000  0.225000  0.475000
Nb2342  Nb  0.800000  0.200000  0.450000
W2336  W  0.825000  0.225000  0.475000
Mo2332  Mo  0.850000  0.200000  0.450000
Nb2343  Nb  0.875000  0.225000  0.475000
Mo2333  Mo  0.900000  0.200000  0.450000
Ta2346  Ta  0.925000  0.225000  0.475000
W2337  W  0.950000  0.200000  0.450000
Mo2334  Mo  0.975000  0.225000  0.475000
Nb2344  Nb  0.500000  0.250000  0.450000
Mo2335  Mo  0.525000  0.275000  0.475000
W2338  W  0.550000  0.250000  0.450000
Mo2336  Mo  0.575000  0.275000  0.475000
Mo2337  Mo  0.600000  0.250000  0.450000
Nb2345  Nb  0.625000  0.275000  0.475000
Mo2338  Mo  0.650000  0.250000  0.450000
Ta2347  Ta  0.675000  0.275000  0.475000
Nb2346  Nb  0.700000  0.250000  0.450000
Nb2347  Nb  0.725000  0.275000  0.475000
Mo2339  Mo  0.750000  0.250000  0.450000
Ta2348  Ta  0.775000  0.275000  0.475000
Mo2340  Mo  0.800000  0.250000  0.450000
Nb2348  Nb  0.825000  0.275000  0.475000
Ta2349  Ta  0.850000  0.250000  0.450000
Nb2349  Nb  0.875000  0.275000  0.475000
Mo2341  Mo  0.900000  0.250000  0.450000
Nb2350  Nb  0.925000  0.275000  0.475000
Nb2351  Nb  0.950000  0.250000  0.450000
Mo2342  Mo  0.975000  0.275000  0.475000
Ta2350  Ta  0.500000  0.300000  0.450000
Mo2343  Mo  0.525000  0.325000  0.475000
W2339  W  0.550000  0.300000  0.450000
Ta2351  Ta  0.575000  0.325000  0.475000
Ta2352  Ta  0.600000  0.300000  0.450000
W2340  W  0.625000  0.325000  0.475000
Mo2344  Mo  0.650000  0.300000  0.450000
Mo2345  Mo  0.675000  0.325000  0.475000
Nb2352  Nb  0.700000  0.300000  0.450000
Nb2353  Nb  0.725000  0.325000  0.475000
Ta2353  Ta  0.750000  0.300000  0.450000
Mo2346  Mo  0.775000  0.325000  0.475000
Mo2347  Mo  0.800000  0.300000  0.450000
Nb2354  Nb  0.825000  0.325000  0.475000
Nb2355  Nb  0.850000  0.300000  0.450000
W2341  W  0.875000  0.325000  0.475000
Ta2354  Ta  0.900000  0.300000  0.450000
Nb2356  Nb  0.925000  0.325000  0.475000
W2342  W  0.950000  0.300000  0.450000
Mo2348  Mo  0.975000  0.325000  0.475000
Nb2357  Nb  0.500000 -0.000000  0.500000
Nb2358  Nb  0.525000  0.025000  0.525000
Ta2355  Ta  0.550000 -0.000000  0.500000
Nb2359  Nb  0.575000  0.025000  0.525000
Mo2349  Mo  0.600000 -0.000000  0.500000
Ta2356  Ta  0.625000  0.025000  0.525000
Mo2350  Mo  0.650000 -0.000000  0.500000
Nb2360  Nb  0.675000  0.025000  0.525000
W2343  W  0.700000 -0.000000  0.500000
Ta2357  Ta  0.725000  0.025000  0.525000
Mo2351  Mo  0.750000 -0.000000  0.500000
W2344  W  0.775000  0.025000  0.525000
Mo2352  Mo  0.800000 -0.000000  0.500000
Nb2361  Nb  0.825000  0.025000  0.525000
Ta2358  Ta  0.850000 -0.000000  0.500000
Nb2362  Nb  0.875000  0.025000  0.525000
W2345  W  0.900000 -0.000000  0.500000
Mo2353  Mo  0.925000  0.025000  0.525000
W2346  W  0.950000 -0.000000  0.500000
Ta2359  Ta  0.975000  0.025000  0.525000
Ta2360  Ta  0.500000  0.050000  0.500000
Mo2354  Mo  0.525000  0.075000  0.525000
Ta2361  Ta  0.550000  0.050000  0.500000
W2347  W  0.575000  0.075000  0.525000
Nb2363  Nb  0.600000  0.050000  0.500000
W2348  W  0.625000  0.075000  0.525000
W2349  W  0.650000  0.050000  0.500000
Mo2355  Mo  0.675000  0.075000  0.525000
Mo2356  Mo  0.700000  0.050000  0.500000
Nb2364  Nb  0.725000  0.075000  0.525000
Mo2357  Mo  0.750000  0.050000  0.500000
Nb2365  Nb  0.775000  0.075000  0.525000
Ta2362  Ta  0.800000  0.050000  0.500000
W2350  W  0.825000  0.075000  0.525000
Ta2363  Ta  0.850000  0.050000  0.500000
Ta2364  Ta  0.875000  0.075000  0.525000
Nb2366  Nb  0.900000  0.050000  0.500000
Nb2367  Nb  0.925000  0.075000  0.525000
Ta2365  Ta  0.950000  0.050000  0.500000
Nb2368  Nb  0.975000  0.075000  0.525000
W2351  W  0.500000  0.100000  0.500000
W2352  W  0.525000  0.125000  0.525000
Mo2358  Mo  0.550000  0.100000  0.500000
Mo2359  Mo  0.575000  0.125000  0.525000
W2353  W  0.600000  0.100000  0.500000
Mo2360  Mo  0.625000  0.125000  0.525000
Ta2366  Ta  0.650000  0.100000  0.500000
W2354  W  0.675000  0.125000  0.525000
Mo2361  Mo  0.700000  0.100000  0.500000
W2355  W  0.725000  0.125000  0.525000
Nb2369  Nb  0.750000  0.100000  0.500000
W2356  W  0.775000  0.125000  0.525000
W2357  W  0.800000  0.100000  0.500000
W2358  W  0.825000  0.125000  0.525000
Mo2362  Mo  0.850000  0.100000  0.500000
Ta2367  Ta  0.875000  0.125000  0.525000
Ta2368  Ta  0.900000  0.100000  0.500000
W2359  W  0.925000  0.125000  0.525000
Ta2369  Ta  0.950000  0.100000  0.500000
Ta2370  Ta  0.975000  0.125000  0.525000
Mo2363  Mo  0.500000  0.150000  0.500000
Nb2370  Nb  0.525000  0.175000  0.525000
Mo2364  Mo  0.550000  0.150000  0.500000
Ta2371  Ta  0.575000  0.175000  0.525000
W2360  W  0.600000  0.150000  0.500000
Nb2371  Nb  0.625000  0.175000  0.525000
Mo2365  Mo  0.650000  0.150000  0.500000
Nb2372  Nb  0.675000  0.175000  0.525000
Mo2366  Mo  0.700000  0.150000  0.500000
Mo2367  Mo  0.725000  0.175000  0.525000
Ta2372  Ta  0.750000  0.150000  0.500000
Nb2373  Nb  0.775000  0.175000  0.525000
Mo2368  Mo  0.800000  0.150000  0.500000
Mo2369  Mo  0.825000  0.175000  0.525000
Mo2370  Mo  0.850000  0.150000  0.500000
Nb2374  Nb  0.875000  0.175000  0.525000
W2361  W  0.900000  0.150000  0.500000
W2362  W  0.925000  0.175000  0.525000
Nb2375  Nb  0.950000  0.150000  0.500000
Nb2376  Nb  0.975000  0.175000  0.525000
Nb2377  Nb  0.500000  0.200000  0.500000
Nb2378  Nb  0.525000  0.225000  0.525000
Ta2373  Ta  0.550000  0.200000  0.500000
W2363  W  0.575000  0.225000  0.525000
W2364  W  0.600000  0.200000  0.500000
Ta2374  Ta  0.625000  0.225000  0.525000
Ta2375  Ta  0.650000  0.200000  0.500000
W2365  W  0.675000  0.225000  0.525000
W2366  W  0.700000  0.200000  0.500000
Ta2376  Ta  0.725000  0.225000  0.525000
Ta2377  Ta  0.750000  0.200000  0.500000
Mo2371  Mo  0.775000  0.225000  0.525000
W2367  W  0.800000  0.200000  0.500000
Ta2378  Ta  0.825000  0.225000  0.525000
W2368  W  0.850000  0.200000  0.500000
Nb2379  Nb  0.875000  0.225000  0.525000
W2369  W  0.900000  0.200000  0.500000
Mo2372  Mo  0.925000  0.225000  0.525000
Ta2379  Ta  0.950000  0.200000  0.500000
W2370  W  0.975000  0.225000  0.525000
Ta2380  Ta  0.500000  0.250000  0.500000
W2371  W  0.525000  0.275000  0.525000
W2372  W  0.550000  0.250000  0.500000
Ta2381  Ta  0.575000  0.275000  0.525000
Nb2380  Nb  0.600000  0.250000  0.500000
W2373  W  0.625000  0.275000  0.525000
Ta2382  Ta  0.650000  0.250000  0.500000
Ta2383  Ta  0.675000  0.275000  0.525000
Ta2384  Ta  0.700000  0.250000  0.500000
Ta2385  Ta  0.725000  0.275000  0.525000
Nb2381  Nb  0.750000  0.250000  0.500000
Nb2382  Nb  0.775000  0.275000  0.525000
Mo2373  Mo  0.800000  0.250000  0.500000
Mo2374  Mo  0.825000  0.275000  0.525000
Ta2386  Ta  0.850000  0.250000  0.500000
W2374  W  0.875000  0.275000  0.525000
Nb2383  Nb  0.900000  0.250000  0.500000
Mo2375  Mo  0.925000  0.275000  0.525000
Nb2384  Nb  0.950000  0.250000  0.500000
Mo2376  Mo  0.975000  0.275000  0.525000
W2375  W  0.500000  0.300000  0.500000
Mo2377  Mo  0.525000  0.325000  0.525000
W2376  W  0.550000  0.300000  0.500000
Ta2387  Ta  0.575000  0.325000  0.525000
Mo2378  Mo  0.600000  0.300000  0.500000
Nb2385  Nb  0.625000  0.325000  0.525000
Ta2388  Ta  0.650000  0.300000  0.500000
W2377  W  0.675000  0.325000  0.525000
Nb2386  Nb  0.700000  0.300000  0.500000
Mo2379  Mo  0.725000  0.325000  0.525000
W2378  W  0.750000  0.300000  0.500000
Ta2389  Ta  0.775000  0.325000  0.525000
Nb2387  Nb  0.800000  0.300000  0.500000
Ta2390  Ta  0.825000  0.325000  0.525000
Nb2388  Nb  0.850000  0.300000  0.500000
Mo2380  Mo  0.875000  0.325000  0.525000
W2379  W  0.900000  0.300000  0.500000
Ta2391  Ta  0.925000  0.325000  0.525000
W2380  W  0.950000  0.300000  0.500000
Mo2381  Mo  0.975000  0.325000  0.525000
Mo2382  Mo  0.500000 -0.000000  0.550000
Ta2392  Ta  0.525000  0.025000  0.575000
Nb2389  Nb  0.550000 -0.000000  0.550000
W2381  W  0.575000  0.025000  0.575000
W2382  W  0.600000 -0.000000  0.550000
Nb2390  Nb  0.625000  0.025000  0.575000
Ta2393  Ta  0.650000 -0.000000  0.550000
W2383  W  0.675000  0.025000  0.575000
Ta2394  Ta  0.700000 -0.000000  0.550000
Ta2395  Ta  0.725000  0.025000  0.575000
Nb2391  Nb  0.750000 -0.000000  0.550000
Ta2396  Ta  0.775000  0.025000  0.575000
Ta2397  Ta  0.800000 -0.000000  0.550000
Mo2383  Mo  0.825000  0.025000  0.575000
W2384  W  0.850000 -0.000000  0.550000
Nb2392  Nb  0.875000  0.025000  0.575000
W2385  W  0.900000 -0.000000  0.550000
Mo2384  Mo  0.925000  0.025000  0.575000
Nb2393  Nb  0.950000 -0.000000  0.550000
Nb2394  Nb  0.975000  0.025000  0.575000
Nb2395  Nb  0.500000  0.050000  0.550000
Mo2385  Mo  0.525000  0.075000  0.575000
Mo2386  Mo  0.550000  0.050000  0.550000
Mo2387  Mo  0.575000  0.075000  0.575000
Nb2396  Nb  0.600000  0.050000  0.550000
Ta2398  Ta  0.625000  0.075000  0.575000
Mo2388  Mo  0.650000  0.050000  0.550000
W2386  W  0.675000  0.075000  0.575000
W2387  W  0.700000  0.050000  0.550000
Mo2389  Mo  0.725000  0.075000  0.575000
Mo2390  Mo  0.750000  0.050000  0.550000
Ta2399  Ta  0.775000  0.075000  0.575000
W2388  W  0.800000  0.050000  0.550000
Nb2397  Nb  0.825000  0.075000  0.575000
Nb2398  Nb  0.850000  0.050000  0.550000
Ta2400  Ta  0.875000  0.075000  0.575000
W2389  W  0.900000  0.050000  0.550000
Mo2391  Mo  0.925000  0.075000  0.575000
Mo2392  Mo  0.950000  0.050000  0.550000
Ta2401  Ta  0.975000  0.075000  0.575000
W2390  W  0.500000  0.100000  0.550000
Nb2399  Nb  0.525000  0.125000  0.575000
Nb2400  Nb  0.550000  0.100000  0.550000
Ta2402  Ta  0.575000  0.125000  0.575000
W2391  W  0.600000  0.100000  0.550000
Ta2403  Ta  0.625000  0.125000  0.575000
Mo2393  Mo  0.650000  0.100000  0.550000
Nb2401  Nb  0.675000  0.125000  0.575000
Ta2404  Ta  0.700000  0.100000  0.550000
W2392  W  0.725000  0.125000  0.575000
Nb2402  Nb  0.750000  0.100000  0.550000
Mo2394  Mo  0.775000  0.125000  0.575000
W2393  W  0.800000  0.100000  0.550000
Ta2405  Ta  0.825000  0.125000  0.575000
Ta2406  Ta  0.850000  0.100000  0.550000
Nb2403  Nb  0.875000  0.125000  0.575000
Ta2407  Ta  0.900000  0.100000  0.550000
W2394  W  0.925000  0.125000  0.575000
Mo2395  Mo  0.950000  0.100000  0.550000
Nb2404  Nb  0.975000  0.125000  0.575000
W2395  W  0.500000  0.150000  0.550000
Mo2396  Mo  0.525000  0.175000  0.575000
W2396  W  0.550000  0.150000  0.550000
W2397  W  0.575000  0.175000  0.575000
Mo2397  Mo  0.600000  0.150000  0.550000
Ta2408  Ta  0.625000  0.175000  0.575000
Ta2409  Ta  0.650000  0.150000  0.550000
Nb2405  Nb  0.675000  0.175000  0.575000
Nb2406  Nb  0.700000  0.150000  0.550000
Mo2398  Mo  0.725000  0.175000  0.575000
W2398  W  0.750000  0.150000  0.550000
Ta2410  Ta  0.775000  0.175000  0.575000
Mo2399  Mo  0.800000  0.150000  0.550000
Mo2400  Mo  0.825000  0.175000  0.575000
Nb2407  Nb  0.850000  0.150000  0.550000
Mo2401  Mo  0.875000  0.175000  0.575000
Mo2402  Mo  0.900000  0.150000  0.550000
Nb2408  Nb  0.925000  0.175000  0.575000
Nb2409  Nb  0.950000  0.150000  0.550000
Nb2410  Nb  0.975000  0.175000  0.575000
Mo2403  Mo  0.500000  0.200000  0.550000
Nb2411  Nb  0.525000  0.225000  0.575000
Nb2412  Nb  0.550000  0.200000  0.550000
Ta2411  Ta  0.575000  0.225000  0.575000
Ta2412  Ta  0.600000  0.200000  0.550000
Nb2413  Nb  0.625000  0.225000  0.575000
Mo2404  Mo  0.650000  0.200000  0.550000
W2399  W  0.675000  0.225000  0.575000
W2400  W  0.700000  0.200000  0.550000
Ta2413  Ta  0.725000  0.225000  0.575000
Mo2405  Mo  0.750000  0.200000  0.550000
W2401  W  0.775000  0.225000  0.575000
Nb2414  Nb  0.800000  0.200000  0.550000
Mo2406  Mo  0.825000  0.225000  0.575000
W2402  W  0.850000  0.200000  0.550000
Ta2414  Ta  0.875000  0.225000  0.575000
Mo2407  Mo  0.900000  0.200000  0.550000
W2403  W  0.925000  0.225000  0.575000
Nb2415  Nb  0.950000  0.200000  0.550000
Ta2415  Ta  0.975000  0.225000  0.575000
W2404  W  0.500000  0.250000  0.550000
W2405  W  0.525000  0.275000  0.575000
Ta2416  Ta  0.550000  0.250000  0.550000
W2406  W  0.575000  0.275000  0.575000
Ta2417  Ta  0.600000  0.250000  0.550000
Ta2418  Ta  0.625000  0.275000  0.575000
Nb2416  Nb  0.650000  0.250000  0.550000
Mo2408  Mo  0.675000  0.275000  0.575000
Ta2419  Ta  0.700000  0.250000  0.550000
W2407  W  0.725000  0.275000  0.575000
Nb2417  Nb  0.750000  0.250000  0.550000
Mo2409  Mo  0.775000  0.275000  0.575000
Nb2418  Nb  0.800000  0.250000  0.550000
Ta2420  Ta  0.825000  0.275000  0.575000
Nb2419  Nb  0.850000  0.250000  0.550000
Mo2410  Mo  0.875000  0.275000  0.575000
Ta2421  Ta  0.900000  0.250000  0.550000
W2408  W  0.925000  0.275000  0.575000
Mo2411  Mo  0.950000  0.250000  0.550000
W2409  W  0.975000  0.275000  0.575000
Ta2422  Ta  0.500000  0.300000  0.550000
Nb2420  Nb  0.525000  0.325000  0.575000
Nb2421  Nb  0.550000  0.300000  0.550000
W2410  W  0.575000  0.325000  0.575000
Nb2422  Nb  0.600000  0.300000  0.550000
Nb2423  Nb  0.625000  0.325000  0.575000
Mo2412  Mo  0.650000  0.300000  0.550000
Ta2423  Ta  0.675000  0.325000  0.575000
Ta2424  Ta  0.700000  0.300000  0.550000
Nb2424  Nb  0.725000  0.325000  0.575000
Ta2425  Ta  0.750000  0.300000  0.550000
Ta2426  Ta  0.775000  0.325000  0.575000
Mo2413  Mo  0.800000  0.300000  0.550000
Ta2427  Ta  0.825000  0.325000  0.575000
Nb2425  Nb  0.850000  0.300000  0.550000
Mo2414  Mo  0.875000  0.325000  0.575000
Nb2426  Nb  0.900000  0.300000  0.550000
Mo2415  Mo  0.925000  0.325000  0.575000
W2411  W  0.950000  0.300000  0.550000
W2412  W  0.975000  0.325000  0.575000
Mo2416  Mo  0.500000 -0.000000  0.600000
Ta2428  Ta  0.525000  0.025000  0.625000
W2413  W  0.550000 -0.000000  0.600000
Ta2429  Ta  0.575000  0.025000  0.625000
W2414  W  0.600000 -0.000000  0.600000
W2415  W  0.625000  0.025000  0.625000
Mo2417  Mo  0.650000 -0.000000  0.600000
Mo2418  Mo  0.675000  0.025000  0.625000
W2416  W  0.700000 -0.000000  0.600000
W2417  W  0.725000  0.025000  0.625000
Nb2427  Nb  0.750000 -0.000000  0.600000
Nb2428  Nb  0.775000  0.025000  0.625000
Ta2430  Ta  0.800000 -0.000000  0.600000
Nb2429  Nb  0.825000  0.025000  0.625000
Nb2430  Nb  0.850000 -0.000000  0.600000
Mo2419  Mo  0.875000  0.025000  0.625000
Nb2431  Nb  0.900000 -0.000000  0.600000
Mo2420  Mo  0.925000  0.025000  0.625000
Nb2432  Nb  0.950000 -0.000000  0.600000
W2418  W  0.975000  0.025000  0.625000
Nb2433  Nb  0.500000  0.050000  0.600000
Ta2431  Ta  0.525000  0.075000  0.625000
Mo2421  Mo  0.550000  0.050000  0.600000
Mo2422  Mo  0.575000  0.075000  0.625000
Mo2423  Mo  0.600000  0.050000  0.600000
Ta2432  Ta  0.625000  0.075000  0.625000
Mo2424  Mo  0.650000  0.050000  0.600000
Nb2434  Nb  0.675000  0.075000  0.625000
Mo2425  Mo  0.700000  0.050000  0.600000
Ta2433  Ta  0.725000  0.075000  0.625000
Ta2434  Ta  0.750000  0.050000  0.600000
Nb2435  Nb  0.775000  0.075000  0.625000
W2419  W  0.800000  0.050000  0.600000
Nb2436  Nb  0.825000  0.075000  0.625000
W2420  W  0.850000  0.050000  0.600000
Nb2437  Nb  0.875000  0.075000  0.625000
Mo2426  Mo  0.900000  0.050000  0.600000
Ta2435  Ta  0.925000  0.075000  0.625000
Ta2436  Ta  0.950000  0.050000  0.600000
Ta2437  Ta  0.975000  0.075000  0.625000
Nb2438  Nb  0.500000  0.100000  0.600000
W2421  W  0.525000  0.125000  0.625000
W2422  W  0.550000  0.100000  0.600000
Nb2439  Nb  0.575000  0.125000  0.625000
Ta2438  Ta  0.600000  0.100000  0.600000
Ta2439  Ta  0.625000  0.125000  0.625000
Ta2440  Ta  0.650000  0.100000  0.600000
Ta2441  Ta  0.675000  0.125000  0.625000
Ta2442  Ta  0.700000  0.100000  0.600000
Nb2440  Nb  0.725000  0.125000  0.625000
Mo2427  Mo  0.750000  0.100000  0.600000
Ta2443  Ta  0.775000  0.125000  0.625000
Nb2441  Nb  0.800000  0.100000  0.600000
Nb2442  Nb  0.825000  0.125000  0.625000
Mo2428  Mo  0.850000  0.100000  0.600000
Mo2429  Mo  0.875000  0.125000  0.625000
Nb2443  Nb  0.900000  0.100000  0.600000
W2423  W  0.925000  0.125000  0.625000
Ta2444  Ta  0.950000  0.100000  0.600000
Ta2445  Ta  0.975000  0.125000  0.625000
W2424  W  0.500000  0.150000  0.600000
Ta2446  Ta  0.525000  0.175000  0.625000
W2425  W  0.550000  0.150000  0.600000
Nb2444  Nb  0.575000  0.175000  0.625000
Ta2447  Ta  0.600000  0.150000  0.600000
Mo2430  Mo  0.625000  0.175000  0.625000
Nb2445  Nb  0.650000  0.150000  0.600000
Nb2446  Nb  0.675000  0.175000  0.625000
Mo2431  Mo  0.700000  0.150000  0.600000
W2426  W  0.725000  0.175000  0.625000
Nb2447  Nb  0.750000  0.150000  0.600000
Ta2448  Ta  0.775000  0.175000  0.625000
W2427  W  0.800000  0.150000  0.600000
W2428  W  0.825000  0.175000  0.625000
Nb2448  Nb  0.850000  0.150000  0.600000
Ta2449  Ta  0.875000  0.175000  0.625000
Nb2449  Nb  0.900000  0.150000  0.600000
Nb2450  Nb  0.925000  0.175000  0.625000
W2429  W  0.950000  0.150000  0.600000
Ta2450  Ta  0.975000  0.175000  0.625000
Nb2451  Nb  0.500000  0.200000  0.600000
Ta2451  Ta  0.525000  0.225000  0.625000
Ta2452  Ta  0.550000  0.200000  0.600000
Nb2452  Nb  0.575000  0.225000  0.625000
Nb2453  Nb  0.600000  0.200000  0.600000
W2430  W  0.625000  0.225000  0.625000
Mo2432  Mo  0.650000  0.200000  0.600000
W2431  W  0.675000  0.225000  0.625000
Mo2433  Mo  0.700000  0.200000  0.600000
Mo2434  Mo  0.725000  0.225000  0.625000
Mo2435  Mo  0.750000  0.200000  0.600000
W2432  W  0.775000  0.225000  0.625000
W2433  W  0.800000  0.200000  0.600000
Nb2454  Nb  0.825000  0.225000  0.625000
W2434  W  0.850000  0.200000  0.600000
Mo2436  Mo  0.875000  0.225000  0.625000
W2435  W  0.900000  0.200000  0.600000
Nb2455  Nb  0.925000  0.225000  0.625000
Mo2437  Mo  0.950000  0.200000  0.600000
Mo2438  Mo  0.975000  0.225000  0.625000
Mo2439  Mo  0.500000  0.250000  0.600000
W2436  W  0.525000  0.275000  0.625000
Mo2440  Mo  0.550000  0.250000  0.600000
Ta2453  Ta  0.575000  0.275000  0.625000
Ta2454  Ta  0.600000  0.250000  0.600000
Nb2456  Nb  0.625000  0.275000  0.625000
W2437  W  0.650000  0.250000  0.600000
Mo2441  Mo  0.675000  0.275000  0.625000
Ta2455  Ta  0.700000  0.250000  0.600000
Ta2456  Ta  0.725000  0.275000  0.625000
Mo2442  Mo  0.750000  0.250000  0.600000
W2438  W  0.775000  0.275000  0.625000
Mo2443  Mo  0.800000  0.250000  0.600000
Ta2457  Ta  0.825000  0.275000  0.625000
Ta2458  Ta  0.850000  0.250000  0.600000
W2439  W  0.875000  0.275000  0.625000
W2440  W  0.900000  0.250000  0.600000
Mo2444  Mo  0.925000  0.275000  0.625000
Mo2445  Mo  0.950000  0.250000  0.600000
Mo2446  Mo  0.975000  0.275000  0.625000
Ta2459  Ta  0.500000  0.300000  0.600000
Mo2447  Mo  0.525000  0.325000  0.625000
W2441  W  0.550000  0.300000  0.600000
W2442  W  0.575000  0.325000  0.625000
Nb2457  Nb  0.600000  0.300000  0.600000
Mo2448  Mo  0.625000  0.325000  0.625000
Nb2458  Nb  0.650000  0.300000  0.600000
W2443  W  0.675000  0.325000  0.625000
Nb2459  Nb  0.700000  0.300000  0.600000
W2444  W  0.725000  0.325000  0.625000
W2445  W  0.750000  0.300000  0.600000
Nb2460  Nb  0.775000  0.325000  0.625000
W2446  W  0.800000  0.300000  0.600000
Ta2460  Ta  0.825000  0.325000  0.625000
W2447  W  0.850000  0.300000  0.600000
Mo2449  Mo  0.875000  0.325000  0.625000
Mo2450  Mo  0.900000  0.300000  0.600000
Mo2451  Mo  0.925000  0.325000  0.625000
Ta2461  Ta  0.950000  0.300000  0.600000
Mo2452  Mo  0.975000  0.325000  0.625000
W2448  W  0.500000 -0.000000  0.650000
W2449  W  0.525000  0.025000  0.675000
Mo2453  Mo  0.550000 -0.000000  0.650000
Nb2461  Nb  0.575000  0.025000  0.675000
W2450  W  0.600000 -0.000000  0.650000
Ta2462  Ta  0.625000  0.025000  0.675000
Ta2463  Ta  0.650000 -0.000000  0.650000
Nb2462  Nb  0.675000  0.025000  0.675000
Ta2464  Ta  0.700000 -0.000000  0.650000
Ta2465  Ta  0.725000  0.025000  0.675000
Nb2463  Nb  0.750000 -0.000000  0.650000
Nb2464  Nb  0.775000  0.025000  0.675000
Mo2454  Mo  0.800000 -0.000000  0.650000
Mo2455  Mo  0.825000  0.025000  0.675000
W2451  W  0.850000 -0.000000  0.650000
W2452  W  0.875000  0.025000  0.675000
Nb2465  Nb  0.900000 -0.000000  0.650000
Ta2466  Ta  0.925000  0.025000  0.675000
Nb2466  Nb  0.950000 -0.000000  0.650000
Nb2467  Nb  0.975000  0.025000  0.675000
Mo2456  Mo  0.500000  0.050000  0.650000
Mo2457  Mo  0.525000  0.075000  0.675000
Mo2458  Mo  0.550000  0.050000  0.650000
Nb2468  Nb  0.575000  0.075000  0.675000
W2453  W  0.600000  0.050000  0.650000
Nb2469  Nb  0.625000  0.075000  0.675000
Mo2459  Mo  0.650000  0.050000  0.650000
Mo2460  Mo  0.675000  0.075000  0.675000
Nb2470  Nb  0.700000  0.050000  0.650000
Nb2471  Nb  0.725000  0.075000  0.675000
Ta2467  Ta  0.750000  0.050000  0.650000
Ta2468  Ta  0.775000  0.075000  0.675000
Mo2461  Mo  0.800000  0.050000  0.650000
Nb2472  Nb  0.825000  0.075000  0.675000
Ta2469  Ta  0.850000  0.050000  0.650000
Ta2470  Ta  0.875000  0.075000  0.675000
Mo2462  Mo  0.900000  0.050000  0.650000
Nb2473  Nb  0.925000  0.075000  0.675000
Mo2463  Mo  0.950000  0.050000  0.650000
Ta2471  Ta  0.975000  0.075000  0.675000
W2454  W  0.500000  0.100000  0.650000
W2455  W  0.525000  0.125000  0.675000
Ta2472  Ta  0.550000  0.100000  0.650000
W2456  W  0.575000  0.125000  0.675000
Mo2464  Mo  0.600000  0.100000  0.650000
W2457  W  0.625000  0.125000  0.675000
W2458  W  0.650000  0.100000  0.650000
Nb2474  Nb  0.675000  0.125000  0.675000
Mo2465  Mo  0.700000  0.100000  0.650000
Ta2473  Ta  0.725000  0.125000  0.675000
Ta2474  Ta  0.750000  0.100000  0.650000
Nb2475  Nb  0.775000  0.125000  0.675000
Nb2476  Nb  0.800000  0.100000  0.650000
Ta2475  Ta  0.825000  0.125000  0.675000
Ta2476  Ta  0.850000  0.100000  0.650000
Nb2477  Nb  0.875000  0.125000  0.675000
Ta2477  Ta  0.900000  0.100000  0.650000
W2459  W  0.925000  0.125000  0.675000
W2460  W  0.950000  0.100000  0.650000
Mo2466  Mo  0.975000  0.125000  0.675000
W2461  W  0.500000  0.150000  0.650000
W2462  W  0.525000  0.175000  0.675000
Mo2467  Mo  0.550000  0.150000  0.650000
Nb2478  Nb  0.575000  0.175000  0.675000
Nb2479  Nb  0.600000  0.150000  0.650000
Nb2480  Nb  0.625000  0.175000  0.675000
Ta2478  Ta  0.650000  0.150000  0.650000
Nb2481  Nb  0.675000  0.175000  0.675000
Ta2479  Ta  0.700000  0.150000  0.650000
Mo2468  Mo  0.725000  0.175000  0.675000
W2463  W  0.750000  0.150000  0.650000
Nb2482  Nb  0.775000  0.175000  0.675000
Ta2480  Ta  0.800000  0.150000  0.650000
W2464  W  0.825000  0.175000  0.675000
Mo2469  Mo  0.850000  0.150000  0.650000
W2465  W  0.875000  0.175000  0.675000
Mo2470  Mo  0.900000  0.150000  0.650000
Mo2471  Mo  0.925000  0.175000  0.675000
Mo2472  Mo  0.950000  0.150000  0.650000
W2466  W  0.975000  0.175000  0.675000
Nb2483  Nb  0.500000  0.200000  0.650000
Mo2473  Mo  0.525000  0.225000  0.675000
Nb2484  Nb  0.550000  0.200000  0.650000
Nb2485  Nb  0.575000  0.225000  0.675000
Ta2481  Ta  0.600000  0.200000  0.650000
W2467  W  0.625000  0.225000  0.675000
Nb2486  Nb  0.650000  0.200000  0.650000
Mo2474  Mo  0.675000  0.225000  0.675000
Ta2482  Ta  0.700000  0.200000  0.650000
W2468  W  0.725000  0.225000  0.675000
Mo2475  Mo  0.750000  0.200000  0.650000
Mo2476  Mo  0.775000  0.225000  0.675000
Ta2483  Ta  0.800000  0.200000  0.650000
Mo2477  Mo  0.825000  0.225000  0.675000
W2469  W  0.850000  0.200000  0.650000
Ta2484  Ta  0.875000  0.225000  0.675000
Mo2478  Mo  0.900000  0.200000  0.650000
W2470  W  0.925000  0.225000  0.675000
Nb2487  Nb  0.950000  0.200000  0.650000
W2471  W  0.975000  0.225000  0.675000
W2472  W  0.500000  0.250000  0.650000
Mo2479  Mo  0.525000  0.275000  0.675000
Nb2488  Nb  0.550000  0.250000  0.650000
Mo2480  Mo  0.575000  0.275000  0.675000
Mo2481  Mo  0.600000  0.250000  0.650000
Nb2489  Nb  0.625000  0.275000  0.675000
W2473  W  0.650000  0.250000  0.650000
Mo2482  Mo  0.675000  0.275000  0.675000
Ta2485  Ta  0.700000  0.250000  0.650000
Nb2490  Nb  0.725000  0.275000  0.675000
Nb2491  Nb  0.750000  0.250000  0.650000
Ta2486  Ta  0.775000  0.275000  0.675000
Nb2492  Nb  0.800000  0.250000  0.650000
Nb2493  Nb  0.825000  0.275000  0.675000
Mo2483  Mo  0.850000  0.250000  0.650000
Nb2494  Nb  0.875000  0.275000  0.675000
W2474  W  0.900000  0.250000  0.650000
Nb2495  Nb  0.925000  0.275000  0.675000
Mo2484  Mo  0.950000  0.250000  0.650000
Nb2496  Nb  0.975000  0.275000  0.675000
Mo2485  Mo  0.500000  0.300000  0.650000
Mo2486  Mo  0.525000  0.325000  0.675000
Mo2487  Mo  0.550000  0.300000  0.650000
Ta2487  Ta  0.575000  0.325000  0.675000
Mo2488  Mo  0.600000  0.300000  0.650000
Nb2497  Nb  0.625000  0.325000  0.675000
Nb2498  Nb  0.650000  0.300000  0.650000
W2475  W  0.675000  0.325000  0.675000
Ta2488  Ta  0.700000  0.300000  0.650000
Nb2499  Nb  0.725000  0.325000  0.675000
Mo2489  Mo  0.750000  0.300000  0.650000
Ta2489  Ta  0.775000  0.325000  0.675000
Mo2490  Mo  0.800000  0.300000  0.650000
W2476  W  0.825000  0.325000  0.675000
Ta2490  Ta  0.850000  0.300000  0.650000
Ta2491  Ta  0.875000  0.325000  0.675000
Mo2491  Mo  0.900000  0.300000  0.650000
Ta2492  Ta  0.925000  0.325000  0.675000
W2477  W  0.950000  0.300000  0.650000
Nb2500  Nb  0.975000  0.325000  0.675000
Ta2493  Ta  0.500000 -0.000000  0.700000
Nb2501  Nb  0.525000  0.025000  0.725000
Ta2494  Ta  0.550000 -0.000000  0.700000
W2478  W  0.575000  0.025000  0.725000
W2479  W  0.600000 -0.000000  0.700000
W2480  W  0.625000  0.025000  0.725000
Ta2495  Ta  0.650000 -0.000000  0.700000
Ta2496  Ta  0.675000  0.025000  0.725000
Ta2497  Ta  0.700000 -0.000000  0.700000
Mo2492  Mo  0.725000  0.025000  0.725000
W2481  W  0.750000 -0.000000  0.700000
Ta2498  Ta  0.775000  0.025000  0.725000
Ta2499  Ta  0.800000 -0.000000  0.700000
Mo2493  Mo  0.825000  0.025000  0.725000
Nb2502  Nb  0.850000 -0.000000  0.700000
Nb2503  Nb  0.875000  0.025000  0.725000
W2482  W  0.900000 -0.000000  0.700000
W2483  W  0.925000  0.025000  0.725000
W2484  W  0.950000 -0.000000  0.700000
Nb2504  Nb  0.975000  0.025000  0.725000
W2485  W  0.500000  0.050000  0.700000
W2486  W  0.525000  0.075000  0.725000
Nb2505  Nb  0.550000  0.050000  0.700000
W2487  W  0.575000  0.075000  0.725000
Nb2506  Nb  0.600000  0.050000  0.700000
Mo2494  Mo  0.625000  0.075000  0.725000
Mo2495  Mo  0.650000  0.050000  0.700000
Ta2500  Ta  0.675000  0.075000  0.725000
Mo2496  Mo  0.700000  0.050000  0.700000
Mo2497  Mo  0.725000  0.075000  0.725000
Nb2507  Nb  0.750000  0.050000  0.700000
Mo2498  Mo  0.775000  0.075000  0.725000
Ta2501  Ta  0.800000  0.050000  0.700000
W2488  W  0.825000  0.075000  0.725000
Nb2508  Nb  0.850000  0.050000  0.700000
Ta2502  Ta  0.875000  0.075000  0.725000
Nb2509  Nb  0.900000  0.050000  0.700000
Nb2510  Nb  0.925000  0.075000  0.725000
Ta2503  Ta  0.950000  0.050000  0.700000
Mo2499  Mo  0.975000  0.075000  0.725000
Ta2504  Ta  0.500000  0.100000  0.700000
Ta2505  Ta  0.525000  0.125000  0.725000
W2489  W  0.550000  0.100000  0.700000
Nb2511  Nb  0.575000  0.125000  0.725000
Mo2500  Mo  0.600000  0.100000  0.700000
Ta2506  Ta  0.625000  0.125000  0.725000
Nb2512  Nb  0.650000  0.100000  0.700000
Ta2507  Ta  0.675000  0.125000  0.725000
W2490  W  0.700000  0.100000  0.700000
Mo2501  Mo  0.725000  0.125000  0.725000
Nb2513  Nb  0.750000  0.100000  0.700000
Nb2514  Nb  0.775000  0.125000  0.725000
Mo2502  Mo  0.800000  0.100000  0.700000
Nb2515  Nb  0.825000  0.125000  0.725000
Ta2508  Ta  0.850000  0.100000  0.700000
Nb2516  Nb  0.875000  0.125000  0.725000
W2491  W  0.900000  0.100000  0.700000
W2492  W  0.925000  0.125000  0.725000
Ta2509  Ta  0.950000  0.100000  0.700000
Nb2517  Nb  0.975000  0.125000  0.725000
W2493  W  0.500000  0.150000  0.700000
Mo2503  Mo  0.525000  0.175000  0.725000
W2494  W  0.550000  0.150000  0.700000
Mo2504  Mo  0.575000  0.175000  0.725000
Ta2510  Ta  0.600000  0.150000  0.700000
Nb2518  Nb  0.625000  0.175000  0.725000
W2495  W  0.650000  0.150000  0.700000
Mo2505  Mo  0.675000  0.175000  0.725000
Mo2506  Mo  0.700000  0.150000  0.700000
Mo2507  Mo  0.725000  0.175000  0.725000
W2496  W  0.750000  0.150000  0.700000
Nb2519  Nb  0.775000  0.175000  0.725000
Mo2508  Mo  0.800000  0.150000  0.700000
Nb2520  Nb  0.825000  0.175000  0.725000
W2497  W  0.850000  0.150000  0.700000
Mo2509  Mo  0.875000  0.175000  0.725000
W2498  W  0.900000  0.150000  0.700000
Nb2521  Nb  0.925000  0.175000  0.725000
Mo2510  Mo  0.950000  0.150000  0.700000
Mo2511  Mo  0.975000  0.175000  0.725000
Mo2512  Mo  0.500000  0.200000  0.700000
Ta2511  Ta  0.525000  0.225000  0.725000
Mo2513  Mo  0.550000  0.200000  0.700000
W2499  W  0.575000  0.225000  0.725000
Ta2512  Ta  0.600000  0.200000  0.700000
Nb2522  Nb  0.625000  0.225000  0.725000
Nb2523  Nb  0.650000  0.200000  0.700000
W2500  W  0.675000  0.225000  0.725000
Nb2524  Nb  0.700000  0.200000  0.700000
Mo2514  Mo  0.725000  0.225000  0.725000
Nb2525  Nb  0.750000  0.200000  0.700000
Nb2526  Nb  0.775000  0.225000  0.725000
Mo2515  Mo  0.800000  0.200000  0.700000
Mo2516  Mo  0.825000  0.225000  0.725000
Nb2527  Nb  0.850000  0.200000  0.700000
Mo2517  Mo  0.875000  0.225000  0.725000
Nb2528  Nb  0.900000  0.200000  0.700000
Ta2513  Ta  0.925000  0.225000  0.725000
Mo2518  Mo  0.950000  0.200000  0.700000
Mo2519  Mo  0.975000  0.225000  0.725000
Mo2520  Mo  0.500000  0.250000  0.700000
Nb2529  Nb  0.525000  0.275000  0.725000
W2501  W  0.550000  0.250000  0.700000
Mo2521  Mo  0.575000  0.275000  0.725000
Mo2522  Mo  0.600000  0.250000  0.700000
Mo2523  Mo  0.625000  0.275000  0.725000
Nb2530  Nb  0.650000  0.250000  0.700000
W2502  W  0.675000  0.275000  0.725000
W2503  W  0.700000  0.250000  0.700000
Nb2531  Nb  0.725000  0.275000  0.725000
Mo2524  Mo  0.750000  0.250000  0.700000
Ta2514  Ta  0.775000  0.275000  0.725000
Ta2515  Ta  0.800000  0.250000  0.700000
Nb2532  Nb  0.825000  0.275000  0.725000
W2504  W  0.850000  0.250000  0.700000
Mo2525  Mo  0.875000  0.275000  0.725000
Ta2516  Ta  0.900000  0.250000  0.700000
Nb2533  Nb  0.925000  0.275000  0.725000
Mo2526  Mo  0.950000  0.250000  0.700000
Nb2534  Nb  0.975000  0.275000  0.725000
Ta2517  Ta  0.500000  0.300000  0.700000
Nb2535  Nb  0.525000  0.325000  0.725000
W2505  W  0.550000  0.300000  0.700000
Mo2527  Mo  0.575000  0.325000  0.725000
W2506  W  0.600000  0.300000  0.700000
Mo2528  Mo  0.625000  0.325000  0.725000
Mo2529  Mo  0.650000  0.300000  0.700000
W2507  W  0.675000  0.325000  0.725000
Mo2530  Mo  0.700000  0.300000  0.700000
Ta2518  Ta  0.725000  0.325000  0.725000
Mo2531  Mo  0.750000  0.300000  0.700000
Nb2536  Nb  0.775000  0.325000  0.725000
W2508  W  0.800000  0.300000  0.700000
Nb2537  Nb  0.825000  0.325000  0.725000
Ta2519  Ta  0.850000  0.300000  0.700000
W2509  W  0.875000  0.325000  0.725000
Nb2538  Nb  0.900000  0.300000  0.700000
Nb2539  Nb  0.925000  0.325000  0.725000
Mo2532  Mo  0.950000  0.300000  0.700000
Mo2533  Mo  0.975000  0.325000  0.725000
W2510  W  0.500000 -0.000000  0.750000
W2511  W  0.525000  0.025000  0.775000
W2512  W  0.550000 -0.000000  0.750000
Ta2520  Ta  0.575000  0.025000  0.775000
Mo2534  Mo  0.600000 -0.000000  0.750000
W2513  W  0.625000  0.025000  0.775000
Ta2521  Ta  0.650000 -0.000000  0.750000
Ta2522  Ta  0.675000  0.025000  0.775000
Nb2540  Nb  0.700000 -0.000000  0.750000
Ta2523  Ta  0.725000  0.025000  0.775000
W2514  W  0.750000 -0.000000  0.750000
Mo2535  Mo  0.775000  0.025000  0.775000
Ta2524  Ta  0.800000 -0.000000  0.750000
Nb2541  Nb  0.825000  0.025000  0.775000
Mo2536  Mo  0.850000 -0.000000  0.750000
Mo2537  Mo  0.875000  0.025000  0.775000
Mo2538  Mo  0.900000 -0.000000  0.750000
W2515  W  0.925000  0.025000  0.775000
W2516  W  0.950000 -0.000000  0.750000
Nb2542  Nb  0.975000  0.025000  0.775000
Nb2543  Nb  0.500000  0.050000  0.750000
Mo2539  Mo  0.525000  0.075000  0.775000
Mo2540  Mo  0.550000  0.050000  0.750000
W2517  W  0.575000  0.075000  0.775000
Nb2544  Nb  0.600000  0.050000  0.750000
W2518  W  0.625000  0.075000  0.775000
W2519  W  0.650000  0.050000  0.750000
Ta2525  Ta  0.675000  0.075000  0.775000
Ta2526  Ta  0.700000  0.050000  0.750000
Nb2545  Nb  0.725000  0.075000  0.775000
W2520  W  0.750000  0.050000  0.750000
W2521  W  0.775000  0.075000  0.775000
Mo2541  Mo  0.800000  0.050000  0.750000
Nb2546  Nb  0.825000  0.075000  0.775000
Mo2542  Mo  0.850000  0.050000  0.750000
W2522  W  0.875000  0.075000  0.775000
Ta2527  Ta  0.900000  0.050000  0.750000
W2523  W  0.925000  0.075000  0.775000
W2524  W  0.950000  0.050000  0.750000
Ta2528  Ta  0.975000  0.075000  0.775000
Ta2529  Ta  0.500000  0.100000  0.750000
Ta2530  Ta  0.525000  0.125000  0.775000
Mo2543  Mo  0.550000  0.100000  0.750000
Ta2531  Ta  0.575000  0.125000  0.775000
Nb2547  Nb  0.600000  0.100000  0.750000
W2525  W  0.625000  0.125000  0.775000
Nb2548  Nb  0.650000  0.100000  0.750000
Ta2532  Ta  0.675000  0.125000  0.775000
W2526  W  0.700000  0.100000  0.750000
Mo2544  Mo  0.725000  0.125000  0.775000
Ta2533  Ta  0.750000  0.100000  0.750000
Mo2545  Mo  0.775000  0.125000  0.775000
Mo2546  Mo  0.800000  0.100000  0.750000
Ta2534  Ta  0.825000  0.125000  0.775000
W2527  W  0.850000  0.100000  0.750000
W2528  W  0.875000  0.125000  0.775000
Nb2549  Nb  0.900000  0.100000  0.750000
Ta2535  Ta  0.925000  0.125000  0.775000
Ta2536  Ta  0.950000  0.100000  0.750000
W2529  W  0.975000  0.125000  0.775000
Mo2547  Mo  0.500000  0.150000  0.750000
W2530  W  0.525000  0.175000  0.775000
W2531  W  0.550000  0.150000  0.750000
Mo2548  Mo  0.575000  0.175000  0.775000
Nb2550  Nb  0.600000  0.150000  0.750000
Nb2551  Nb  0.625000  0.175000  0.775000
W2532  W  0.650000  0.150000  0.750000
Nb2552  Nb  0.675000  0.175000  0.775000
W2533  W  0.700000  0.150000  0.750000
Ta2537  Ta  0.725000  0.175000  0.775000
Ta2538  Ta  0.750000  0.150000  0.750000
Mo2549  Mo  0.775000  0.175000  0.775000
Ta2539  Ta  0.800000  0.150000  0.750000
Nb2553  Nb  0.825000  0.175000  0.775000
Mo2550  Mo  0.850000  0.150000  0.750000
Ta2540  Ta  0.875000  0.175000  0.775000
Mo2551  Mo  0.900000  0.150000  0.750000
W2534  W  0.925000  0.175000  0.775000
Ta2541  Ta  0.950000  0.150000  0.750000
Nb2554  Nb  0.975000  0.175000  0.775000
Ta2542  Ta  0.500000  0.200000  0.750000
Ta2543  Ta  0.525000  0.225000  0.775000
Nb2555  Nb  0.550000  0.200000  0.750000
Nb2556  Nb  0.575000  0.225000  0.775000
Mo2552  Mo  0.600000  0.200000  0.750000
Nb2557  Nb  0.625000  0.225000  0.775000
Mo2553  Mo  0.650000  0.200000  0.750000
Ta2544  Ta  0.675000  0.225000  0.775000
Nb2558  Nb  0.700000  0.200000  0.750000
Nb2559  Nb  0.725000  0.225000  0.775000
W2535  W  0.750000  0.200000  0.750000
Mo2554  Mo  0.775000  0.225000  0.775000
Mo2555  Mo  0.800000  0.200000  0.750000
Ta2545  Ta  0.825000  0.225000  0.775000
W2536  W  0.850000  0.200000  0.750000
Nb2560  Nb  0.875000  0.225000  0.775000
W2537  W  0.900000  0.200000  0.750000
Mo2556  Mo  0.925000  0.225000  0.775000
W2538  W  0.950000  0.200000  0.750000
W2539  W  0.975000  0.225000  0.775000
Nb2561  Nb  0.500000  0.250000  0.750000
Mo2557  Mo  0.525000  0.275000  0.775000
W2540  W  0.550000  0.250000  0.750000
W2541  W  0.575000  0.275000  0.775000
Ta2546  Ta  0.600000  0.250000  0.750000
Ta2547  Ta  0.625000  0.275000  0.775000
Nb2562  Nb  0.650000  0.250000  0.750000
Ta2548  Ta  0.675000  0.275000  0.775000
Ta2549  Ta  0.700000  0.250000  0.750000
Mo2558  Mo  0.725000  0.275000  0.775000
Nb2563  Nb  0.750000  0.250000  0.750000
Mo2559  Mo  0.775000  0.275000  0.775000
Mo2560  Mo  0.800000  0.250000  0.750000
Ta2550  Ta  0.825000  0.275000  0.775000
Ta2551  Ta  0.850000  0.250000  0.750000
W2542  W  0.875000  0.275000  0.775000
Nb2564  Nb  0.900000  0.250000  0.750000
W2543  W  0.925000  0.275000  0.775000
W2544  W  0.950000  0.250000  0.750000
W2545  W  0.975000  0.275000  0.775000
W2546  W  0.500000  0.300000  0.750000
Nb2565  Nb  0.525000  0.325000  0.775000
Nb2566  Nb  0.550000  0.300000  0.750000
Mo2561  Mo  0.575000  0.325000  0.775000
Mo2562  Mo  0.600000  0.300000  0.750000
Ta2552  Ta  0.625000  0.325000  0.775000
Ta2553  Ta  0.650000  0.300000  0.750000
W2547  W  0.675000  0.325000  0.775000
Ta2554  Ta  0.700000  0.300000  0.750000
Ta2555  Ta  0.725000  0.325000  0.775000
Ta2556  Ta  0.750000  0.300000  0.750000
Nb2567  Nb  0.775000  0.325000  0.775000
Mo2563  Mo  0.800000  0.300000  0.750000
Nb2568  Nb  0.825000  0.325000  0.775000
W2548  W  0.850000  0.300000  0.750000
Ta2557  Ta  0.875000  0.325000  0.775000
Nb2569  Nb  0.900000  0.300000  0.750000
Ta2558  Ta  0.925000  0.325000  0.775000
Mo2564  Mo  0.950000  0.300000  0.750000
Mo2565  Mo  0.975000  0.325000  0.775000
Nb2570  Nb  0.500000 -0.000000  0.800000
W2549  W  0.525000  0.025000  0.825000
Nb2571  Nb  0.550000 -0.000000  0.800000
Ta2559  Ta  0.575000  0.025000  0.825000
Mo2566  Mo  0.600000 -0.000000  0.800000
Nb2572  Nb  0.625000  0.025000  0.825000
Mo2567  Mo  0.650000 -0.000000  0.800000
W2550  W  0.675000  0.025000  0.825000
Nb2573  Nb  0.700000 -0.000000  0.800000
Mo2568  Mo  0.725000  0.025000  0.825000
W2551  W  0.750000 -0.000000  0.800000
W2552  W  0.775000  0.025000  0.825000
Mo2569  Mo  0.800000 -0.000000  0.800000
Mo2570  Mo  0.825000  0.025000  0.825000
Mo2571  Mo  0.850000 -0.000000  0.800000
Ta2560  Ta  0.875000  0.025000  0.825000
Mo2572  Mo  0.900000 -0.000000  0.800000
Nb2574  Nb  0.925000  0.025000  0.825000
Ta2561  Ta  0.950000 -0.000000  0.800000
Ta2562  Ta  0.975000  0.025000  0.825000
Nb2575  Nb  0.500000  0.050000  0.800000
Mo2573  Mo  0.525000  0.075000  0.825000
Nb2576  Nb  0.550000  0.050000  0.800000
Mo2574  Mo  0.575000  0.075000  0.825000
Nb2577  Nb  0.600000  0.050000  0.800000
W2553  W  0.625000  0.075000  0.825000
Mo2575  Mo  0.650000  0.050000  0.800000
W2554  W  0.675000  0.075000  0.825000
Mo2576  Mo  0.700000  0.050000  0.800000
Mo2577  Mo  0.725000  0.075000  0.825000
Nb2578  Nb  0.750000  0.050000  0.800000
Nb2579  Nb  0.775000  0.075000  0.825000
Mo2578  Mo  0.800000  0.050000  0.800000
Nb2580  Nb  0.825000  0.075000  0.825000
Ta2563  Ta  0.850000  0.050000  0.800000
Nb2581  Nb  0.875000  0.075000  0.825000
Ta2564  Ta  0.900000  0.050000  0.800000
W2555  W  0.925000  0.075000  0.825000
Nb2582  Nb  0.950000  0.050000  0.800000
W2556  W  0.975000  0.075000  0.825000
W2557  W  0.500000  0.100000  0.800000
Mo2579  Mo  0.525000  0.125000  0.825000
W2558  W  0.550000  0.100000  0.800000
Mo2580  Mo  0.575000  0.125000  0.825000
Nb2583  Nb  0.600000  0.100000  0.800000
Nb2584  Nb  0.625000  0.125000  0.825000
Ta2565  Ta  0.650000  0.100000  0.800000
W2559  W  0.675000  0.125000  0.825000
W2560  W  0.700000  0.100000  0.800000
W2561  W  0.725000  0.125000  0.825000
Ta2566  Ta  0.750000  0.100000  0.800000
W2562  W  0.775000  0.125000  0.825000
Ta2567  Ta  0.800000  0.100000  0.800000
Nb2585  Nb  0.825000  0.125000  0.825000
Mo2581  Mo  0.850000  0.100000  0.800000
Ta2568  Ta  0.875000  0.125000  0.825000
Nb2586  Nb  0.900000  0.100000  0.800000
Ta2569  Ta  0.925000  0.125000  0.825000
W2563  W  0.950000  0.100000  0.800000
Ta2570  Ta  0.975000  0.125000  0.825000
W2564  W  0.500000  0.150000  0.800000
Ta2571  Ta  0.525000  0.175000  0.825000
Ta2572  Ta  0.550000  0.150000  0.800000
Nb2587  Nb  0.575000  0.175000  0.825000
Ta2573  Ta  0.600000  0.150000  0.800000
W2565  W  0.625000  0.175000  0.825000
Mo2582  Mo  0.650000  0.150000  0.800000
Mo2583  Mo  0.675000  0.175000  0.825000
Ta2574  Ta  0.700000  0.150000  0.800000
Mo2584  Mo  0.725000  0.175000  0.825000
Mo2585  Mo  0.750000  0.150000  0.800000
Mo2586  Mo  0.775000  0.175000  0.825000
Ta2575  Ta  0.800000  0.150000  0.800000
Nb2588  Nb  0.825000  0.175000  0.825000
Nb2589  Nb  0.850000  0.150000  0.800000
W2566  W  0.875000  0.175000  0.825000
Mo2587  Mo  0.900000  0.150000  0.800000
Nb2590  Nb  0.925000  0.175000  0.825000
W2567  W  0.950000  0.150000  0.800000
W2568  W  0.975000  0.175000  0.825000
Mo2588  Mo  0.500000  0.200000  0.800000
Nb2591  Nb  0.525000  0.225000  0.825000
Nb2592  Nb  0.550000  0.200000  0.800000
Mo2589  Mo  0.575000  0.225000  0.825000
W2569  W  0.600000  0.200000  0.800000
Ta2576  Ta  0.625000  0.225000  0.825000
Mo2590  Mo  0.650000  0.200000  0.800000
Nb2593  Nb  0.675000  0.225000  0.825000
W2570  W  0.700000  0.200000  0.800000
Ta2577  Ta  0.725000  0.225000  0.825000
W2571  W  0.750000  0.200000  0.800000
Ta2578  Ta  0.775000  0.225000  0.825000
Nb2594  Nb  0.800000  0.200000  0.800000
Mo2591  Mo  0.825000  0.225000  0.825000
Nb2595  Nb  0.850000  0.200000  0.800000
Ta2579  Ta  0.875000  0.225000  0.825000
W2572  W  0.900000  0.200000  0.800000
Mo2592  Mo  0.925000  0.225000  0.825000
Nb2596  Nb  0.950000  0.200000  0.800000
Ta2580  Ta  0.975000  0.225000  0.825000
Ta2581  Ta  0.500000  0.250000  0.800000
Mo2593  Mo  0.525000  0.275000  0.825000
W2573  W  0.550000  0.250000  0.800000
Ta2582  Ta  0.575000  0.275000  0.825000
W2574  W  0.600000  0.250000  0.800000
Ta2583  Ta  0.625000  0.275000  0.825000
Nb2597  Nb  0.650000  0.250000  0.800000
Nb2598  Nb  0.675000  0.275000  0.825000
Mo2594  Mo  0.700000  0.250000  0.800000
Ta2584  Ta  0.725000  0.275000  0.825000
Mo2595  Mo  0.750000  0.250000  0.800000
Ta2585  Ta  0.775000  0.275000  0.825000
Nb2599  Nb  0.800000  0.250000  0.800000
Nb2600  Nb  0.825000  0.275000  0.825000
Ta2586  Ta  0.850000  0.250000  0.800000
Nb2601  Nb  0.875000  0.275000  0.825000
Nb2602  Nb  0.900000  0.250000  0.800000
Nb2603  Nb  0.925000  0.275000  0.825000
W2575  W  0.950000  0.250000  0.800000
Nb2604  Nb  0.975000  0.275000  0.825000
Ta2587  Ta  0.500000  0.300000  0.800000
Nb2605  Nb  0.525000  0.325000  0.825000
Mo2596  Mo  0.550000  0.300000  0.800000
Mo2597  Mo  0.575000  0.325000  0.825000
Mo2598  Mo  0.600000  0.300000  0.800000
Mo2599  Mo  0.625000  0.325000  0.825000
Ta2588  Ta  0.650000  0.300000  0.800000
Nb2606  Nb  0.675000  0.325000  0.825000
Nb2607  Nb  0.700000  0.300000  0.800000
W2576  W  0.725000  0.325000  0.825000
Nb2608  Nb  0.750000  0.300000  0.800000
Ta2589  Ta  0.775000  0.325000  0.825000
Ta2590  Ta  0.800000  0.300000  0.800000
Nb2609  Nb  0.825000  0.325000  0.825000
Ta2591  Ta  0.850000  0.300000  0.800000
Mo2600  Mo  0.875000  0.325000  0.825000
W2577  W  0.900000  0.300000  0.800000
Mo2601  Mo  0.925000  0.325000  0.825000
Mo2602  Mo  0.950000  0.300000  0.800000
Mo2603  Mo  0.975000  0.325000  0.825000
Nb2610  Nb  0.500000 -0.000000  0.850000
Nb2611  Nb  0.525000  0.025000  0.875000
Ta2592  Ta  0.550000 -0.000000  0.850000
W2578  W  0.575000  0.025000  0.875000
W2579  W  0.600000 -0.000000  0.850000
Nb2612  Nb  0.625000  0.025000  0.875000
Mo2604  Mo  0.650000 -0.000000  0.850000
Ta2593  Ta  0.675000  0.025000  0.875000
W2580  W  0.700000 -0.000000  0.850000
Ta2594  Ta  0.725000  0.025000  0.875000
Nb2613  Nb  0.750000 -0.000000  0.850000
Ta2595  Ta  0.775000  0.025000  0.875000
Mo2605  Mo  0.800000 -0.000000  0.850000
Mo2606  Mo  0.825000  0.025000  0.875000
W2581  W  0.850000 -0.000000  0.850000
Ta2596  Ta  0.875000  0.025000  0.875000
Ta2597  Ta  0.900000 -0.000000  0.850000
Mo2607  Mo  0.925000  0.025000  0.875000
W2582  W  0.950000 -0.000000  0.850000
Ta2598  Ta  0.975000  0.025000  0.875000
Ta2599  Ta  0.500000  0.050000  0.850000
Ta2600  Ta  0.525000  0.075000  0.875000
Nb2614  Nb  0.550000  0.050000  0.850000
Ta2601  Ta  0.575000  0.075000  0.875000
Nb2615  Nb  0.600000  0.050000  0.850000
W2583  W  0.625000  0.075000  0.875000
Mo2608  Mo  0.650000  0.050000  0.850000
Nb2616  Nb  0.675000  0.075000  0.875000
W2584  W  0.700000  0.050000  0.850000
Nb2617  Nb  0.725000  0.075000  0.875000
W2585  W  0.750000  0.050000  0.850000
W2586  W  0.775000  0.075000  0.875000
W2587  W  0.800000  0.050000  0.850000
Nb2618  Nb  0.825000  0.075000  0.875000
Ta2602  Ta  0.850000  0.050000  0.850000
W2588  W  0.875000  0.075000  0.875000
W2589  W  0.900000  0.050000  0.850000
Nb2619  Nb  0.925000  0.075000  0.875000
Mo2609  Mo  0.950000  0.050000  0.850000
W2590  W  0.975000  0.075000  0.875000
Mo2610  Mo  0.500000  0.100000  0.850000
Ta2603  Ta  0.525000  0.125000  0.875000
Nb2620  Nb  0.550000  0.100000  0.850000
Mo2611  Mo  0.575000  0.125000  0.875000
Nb2621  Nb  0.600000  0.100000  0.850000
Mo2612  Mo  0.625000  0.125000  0.875000
Mo2613  Mo  0.650000  0.100000  0.850000
Ta2604  Ta  0.675000  0.125000  0.875000
Ta2605  Ta  0.700000  0.100000  0.850000
W2591  W  0.725000  0.125000  0.875000
Mo2614  Mo  0.750000  0.100000  0.850000
Ta2606  Ta  0.775000  0.125000  0.875000
Ta2607  Ta  0.800000  0.100000  0.850000
W2592  W  0.825000  0.125000  0.875000
Nb2622  Nb  0.850000  0.100000  0.850000
Mo2615  Mo  0.875000  0.125000  0.875000
Ta2608  Ta  0.900000  0.100000  0.850000
Ta2609  Ta  0.925000  0.125000  0.875000
Nb2623  Nb  0.950000  0.100000  0.850000
Nb2624  Nb  0.975000  0.125000  0.875000
W2593  W  0.500000  0.150000  0.850000
Nb2625  Nb  0.525000  0.175000  0.875000
W2594  W  0.550000  0.150000  0.850000
W2595  W  0.575000  0.175000  0.875000
W2596  W  0.600000  0.150000  0.850000
W2597  W  0.625000  0.175000  0.875000
Nb2626  Nb  0.650000  0.150000  0.850000
Mo2616  Mo  0.675000  0.175000  0.875000
W2598  W  0.700000  0.150000  0.850000
Ta2610  Ta  0.725000  0.175000  0.875000
Nb2627  Nb  0.750000  0.150000  0.850000
Ta2611  Ta  0.775000  0.175000  0.875000
W2599  W  0.800000  0.150000  0.850000
Mo2617  Mo  0.825000  0.175000  0.875000
Mo2618  Mo  0.850000  0.150000  0.850000
Mo2619  Mo  0.875000  0.175000  0.875000
Mo2620  Mo  0.900000  0.150000  0.850000
W2600  W  0.925000  0.175000  0.875000
Ta2612  Ta  0.950000  0.150000  0.850000
Ta2613  Ta  0.975000  0.175000  0.875000
Ta2614  Ta  0.500000  0.200000  0.850000
Mo2621  Mo  0.525000  0.225000  0.875000
W2601  W  0.550000  0.200000  0.850000
Ta2615  Ta  0.575000  0.225000  0.875000
W2602  W  0.600000  0.200000  0.850000
W2603  W  0.625000  0.225000  0.875000
W2604  W  0.650000  0.200000  0.850000
W2605  W  0.675000  0.225000  0.875000
Mo2622  Mo  0.700000  0.200000  0.850000
Nb2628  Nb  0.725000  0.225000  0.875000
Nb2629  Nb  0.750000  0.200000  0.850000
Mo2623  Mo  0.775000  0.225000  0.875000
Mo2624  Mo  0.800000  0.200000  0.850000
Nb2630  Nb  0.825000  0.225000  0.875000
W2606  W  0.850000  0.200000  0.850000
W2607  W  0.875000  0.225000  0.875000
Ta2616  Ta  0.900000  0.200000  0.850000
W2608  W  0.925000  0.225000  0.875000
Ta2617  Ta  0.950000  0.200000  0.850000
Mo2625  Mo  0.975000  0.225000  0.875000
Ta2618  Ta  0.500000  0.250000  0.850000
Nb2631  Nb  0.525000  0.275000  0.875000
W2609  W  0.550000  0.250000  0.850000
Mo2626  Mo  0.575000  0.275000  0.875000
Mo2627  Mo  0.600000  0.250000  0.850000
W2610  W  0.625000  0.275000  0.875000
Ta2619  Ta  0.650000  0.250000  0.850000
Nb2632  Nb  0.675000  0.275000  0.875000
Nb2633  Nb  0.700000  0.250000  0.850000
Ta2620  Ta  0.725000  0.275000  0.875000
Mo2628  Mo  0.750000  0.250000  0.850000
Mo2629  Mo  0.775000  0.275000  0.875000
Mo2630  Mo  0.800000  0.250000  0.850000
W2611  W  0.825000  0.275000  0.875000
Nb2634  Nb  0.850000  0.250000  0.850000
Mo2631  Mo  0.875000  0.275000  0.875000
W2612  W  0.900000  0.250000  0.850000
Nb2635  Nb  0.925000  0.275000  0.875000
Mo2632  Mo  0.950000  0.250000  0.850000
Nb2636  Nb  0.975000  0.275000  0.875000
Ta2621  Ta  0.500000  0.300000  0.850000
Mo2633  Mo  0.525000  0.325000  0.875000
Nb2637  Nb  0.550000  0.300000  0.850000
Ta2622  Ta  0.575000  0.325000  0.875000
Nb2638  Nb  0.600000  0.300000  0.850000
Nb2639  Nb  0.625000  0.325000  0.875000
Mo2634  Mo  0.650000  0.300000  0.850000
Nb2640  Nb  0.675000  0.325000  0.875000
Nb2641  Nb  0.700000  0.300000  0.850000
Ta2623  Ta  0.725000  0.325000  0.875000
Mo2635  Mo  0.750000  0.300000  0.850000
Mo2636  Mo  0.775000  0.325000  0.875000
W2613  W  0.800000  0.300000  0.850000
Ta2624  Ta  0.825000  0.325000  0.875000
Ta2625  Ta  0.850000  0.300000  0.850000
W2614  W  0.875000  0.325000  0.875000
Mo2637  Mo  0.900000  0.300000  0.850000
Nb2642  Nb  0.925000  0.325000  0.875000
W2615  W  0.950000  0.300000  0.850000
Ta2626  Ta  0.975000  0.325000  0.875000
Ta2627  Ta  0.500000 -0.000000  0.900000
W2616  W  0.525000  0.025000  0.925000
W2617  W  0.550000 -0.000000  0.900000
Mo2638  Mo  0.575000  0.025000  0.925000
Mo2639  Mo  0.600000 -0.000000  0.900000
Mo2640  Mo  0.625000  0.025000  0.925000
Ta2628  Ta  0.650000 -0.000000  0.900000
W2618  W  0.675000  0.025000  0.925000
Nb2643  Nb  0.700000 -0.000000  0.900000
W2619  W  0.725000  0.025000  0.925000
Mo2641  Mo  0.750000 -0.000000  0.900000
Nb2644  Nb  0.775000  0.025000  0.925000
Nb2645  Nb  0.800000 -0.000000  0.900000
W2620  W  0.825000  0.025000  0.925000
Ta2629  Ta  0.850000 -0.000000  0.900000
Ta2630  Ta  0.875000  0.025000  0.925000
W2621  W  0.900000 -0.000000  0.900000
W2622  W  0.925000  0.025000  0.925000
Nb2646  Nb  0.950000 -0.000000  0.900000
Mo2642  Mo  0.975000  0.025000  0.925000
Mo2643  Mo  0.500000  0.050000  0.900000
Ta2631  Ta  0.525000  0.075000  0.925000
W2623  W  0.550000  0.050000  0.900000
Ta2632  Ta  0.575000  0.075000  0.925000
W2624  W  0.600000  0.050000  0.900000
Mo2644  Mo  0.625000  0.075000  0.925000
Ta2633  Ta  0.650000  0.050000  0.900000
Nb2647  Nb  0.675000  0.075000  0.925000
W2625  W  0.700000  0.050000  0.900000
Nb2648  Nb  0.725000  0.075000  0.925000
Mo2645  Mo  0.750000  0.050000  0.900000
Ta2634  Ta  0.775000  0.075000  0.925000
W2626  W  0.800000  0.050000  0.900000
Mo2646  Mo  0.825000  0.075000  0.925000
Ta2635  Ta  0.850000  0.050000  0.900000
W2627  W  0.875000  0.075000  0.925000
Nb2649  Nb  0.900000  0.050000  0.900000
Mo2647  Mo  0.925000  0.075000  0.925000
Mo2648  Mo  0.950000  0.050000  0.900000
W2628  W  0.975000  0.075000  0.925000
Ta2636  Ta  0.500000  0.100000  0.900000
Nb2650  Nb  0.525000  0.125000  0.925000
Ta2637  Ta  0.550000  0.100000  0.900000
Mo2649  Mo  0.575000  0.125000  0.925000
Nb2651  Nb  0.600000  0.100000  0.900000
Mo2650  Mo  0.625000  0.125000  0.925000
W2629  W  0.650000  0.100000  0.900000
W2630  W  0.675000  0.125000  0.925000
Mo2651  Mo  0.700000  0.100000  0.900000
Mo2652  Mo  0.725000  0.125000  0.925000
Mo2653  Mo  0.750000  0.100000  0.900000
W2631  W  0.775000  0.125000  0.925000
Ta2638  Ta  0.800000  0.100000  0.900000
W2632  W  0.825000  0.125000  0.925000
Mo2654  Mo  0.850000  0.100000  0.900000
W2633  W  0.875000  0.125000  0.925000
Nb2652  Nb  0.900000  0.100000  0.900000
Mo2655  Mo  0.925000  0.125000  0.925000
Nb2653  Nb  0.950000  0.100000  0.900000
Ta2639  Ta  0.975000  0.125000  0.925000
Nb2654  Nb  0.500000  0.150000  0.900000
Nb2655  Nb  0.525000  0.175000  0.925000
Ta2640  Ta  0.550000  0.150000  0.900000
Ta2641  Ta  0.575000  0.175000  0.925000
Nb2656  Nb  0.600000  0.150000  0.900000
Nb2657  Nb  0.625000  0.175000  0.925000
Mo2656  Mo  0.650000  0.150000  0.900000
Nb2658  Nb  0.675000  0.175000  0.925000
Ta2642  Ta  0.700000  0.150000  0.900000
Ta2643  Ta  0.725000  0.175000  0.925000
Nb2659  Nb  0.750000  0.150000  0.900000
Ta2644  Ta  0.775000  0.175000  0.925000
Nb2660  Nb  0.800000  0.150000  0.900000
Nb2661  Nb  0.825000  0.175000  0.925000
Mo2657  Mo  0.850000  0.150000  0.900000
W2634  W  0.875000  0.175000  0.925000
Nb2662  Nb  0.900000  0.150000  0.900000
Mo2658  Mo  0.925000  0.175000  0.925000
Nb2663  Nb  0.950000  0.150000  0.900000
W2635  W  0.975000  0.175000  0.925000
Nb2664  Nb  0.500000  0.200000  0.900000
Mo2659  Mo  0.525000  0.225000  0.925000
Mo2660  Mo  0.550000  0.200000  0.900000
Mo2661  Mo  0.575000  0.225000  0.925000
Mo2662  Mo  0.600000  0.200000  0.900000
Ta2645  Ta  0.625000  0.225000  0.925000
Mo2663  Mo  0.650000  0.200000  0.900000
Nb2665  Nb  0.675000  0.225000  0.925000
Mo2664  Mo  0.700000  0.200000  0.900000
Nb2666  Nb  0.725000  0.225000  0.925000
Mo2665  Mo  0.750000  0.200000  0.900000
W2636  W  0.775000  0.225000  0.925000
Mo2666  Mo  0.800000  0.200000  0.900000
Nb2667  Nb  0.825000  0.225000  0.925000
Nb2668  Nb  0.850000  0.200000  0.900000
Nb2669  Nb  0.875000  0.225000  0.925000
Mo2667  Mo  0.900000  0.200000  0.900000
Nb2670  Nb  0.925000  0.225000  0.925000
Mo2668  Mo  0.950000  0.200000  0.900000
Nb2671  Nb  0.975000  0.225000  0.925000
W2637  W  0.500000  0.250000  0.900000
W2638  W  0.525000  0.275000  0.925000
W2639  W  0.550000  0.250000  0.900000
Ta2646  Ta  0.575000  0.275000  0.925000
Nb2672  Nb  0.600000  0.250000  0.900000
Nb2673  Nb  0.625000  0.275000  0.925000
Nb2674  Nb  0.650000  0.250000  0.900000
W2640  W  0.675000  0.275000  0.925000
Mo2669  Mo  0.700000  0.250000  0.900000
Mo2670  Mo  0.725000  0.275000  0.925000
Mo2671  Mo  0.750000  0.250000  0.900000
W2641  W  0.775000  0.275000  0.925000
Ta2647  Ta  0.800000  0.250000  0.900000
Ta2648  Ta  0.825000  0.275000  0.925000
Ta2649  Ta  0.850000  0.250000  0.900000
Ta2650  Ta  0.875000  0.275000  0.925000
Mo2672  Mo  0.900000  0.250000  0.900000
Nb2675  Nb  0.925000  0.275000  0.925000
Mo2673  Mo  0.950000  0.250000  0.900000
Mo2674  Mo  0.975000  0.275000  0.925000
Nb2676  Nb  0.500000  0.300000  0.900000
Mo2675  Mo  0.525000  0.325000  0.925000
Nb2677  Nb  0.550000  0.300000  0.900000
Ta2651  Ta  0.575000  0.325000  0.925000
Nb2678  Nb  0.600000  0.300000  0.900000
Mo2676  Mo  0.625000  0.325000  0.925000
W2642  W  0.650000  0.300000  0.900000
W2643  W  0.675000  0.325000  0.925000
W2644  W  0.700000  0.300000  0.900000
W2645  W  0.725000  0.325000  0.925000
W2646  W  0.750000  0.300000  0.900000
Mo2677  Mo  0.775000  0.325000  0.925000
Nb2679  Nb  0.800000  0.300000  0.900000
Nb2680  Nb  0.825000  0.325000  0.925000
Nb2681  Nb  0.850000  0.300000  0.900000
Mo2678  Mo  0.875000  0.325000  0.925000
Nb2682  Nb  0.900000  0.300000  0.900000
Mo2679  Mo  0.925000  0.325000  0.925000
Ta2652  Ta  0.950000  0.300000  0.900000
W2647  W  0.975000  0.325000  0.925000
W2648  W  0.500000 -0.000000  0.950000
Mo2680  Mo  0.525000  0.025000  0.975000
W2649  W  0.550000 -0.000000  0.950000
Ta2653  Ta  0.575000  0.025000  0.975000
Mo2681  Mo  0.600000 -0.000000  0.950000
W2650  W  0.625000  0.025000  0.975000
Mo2682  Mo  0.650000 -0.000000  0.950000
Mo2683  Mo  0.675000  0.025000  0.975000
Mo2684  Mo  0.700000 -0.000000  0.950000
Ta2654  Ta  0.725000  0.025000  0.975000
W2651  W  0.750000 -0.000000  0.950000
W2652  W  0.775000  0.025000  0.975000
W2653  W  0.800000 -0.000000  0.950000
Mo2685  Mo  0.825000  0.025000  0.975000
Ta2655  Ta  0.850000 -0.000000  0.950000
Mo2686  Mo  0.875000  0.025000  0.975000
Ta2656  Ta  0.900000 -0.000000  0.950000
W2654  W  0.925000  0.025000  0.975000
Nb2683  Nb  0.950000 -0.000000  0.950000
Nb2684  Nb  0.975000  0.025000  0.975000
Nb2685  Nb  0.500000  0.050000  0.950000
Ta2657  Ta  0.525000  0.075000  0.975000
W2655  W  0.550000  0.050000  0.950000
Mo2687  Mo  0.575000  0.075000  0.975000
Mo2688  Mo  0.600000  0.050000  0.950000
Ta2658  Ta  0.625000  0.075000  0.975000
Mo2689  Mo  0.650000  0.050000  0.950000
Mo2690  Mo  0.675000  0.075000  0.975000
Nb2686  Nb  0.700000  0.050000  0.950000
Ta2659  Ta  0.725000  0.075000  0.975000
Nb2687  Nb  0.750000  0.050000  0.950000
Mo2691  Mo  0.775000  0.075000  0.975000
Mo2692  Mo  0.800000  0.050000  0.950000
W2656  W  0.825000  0.075000  0.975000
Ta2660  Ta  0.850000  0.050000  0.950000
Nb2688  Nb  0.875000  0.075000  0.975000
Nb2689  Nb  0.900000  0.050000  0.950000
W2657  W  0.925000  0.075000  0.975000
Nb2690  Nb  0.950000  0.050000  0.950000
Ta2661  Ta  0.975000  0.075000  0.975000
Ta2662  Ta  0.500000  0.100000  0.950000
Ta2663  Ta  0.525000  0.125000  0.975000
Nb2691  Nb  0.550000  0.100000  0.950000
Mo2693  Mo  0.575000  0.125000  0.975000
Nb2692  Nb  0.600000  0.100000  0.950000
Ta2664  Ta  0.625000  0.125000  0.975000
W2658  W  0.650000  0.100000  0.950000
Ta2665  Ta  0.675000  0.125000  0.975000
Mo2694  Mo  0.700000  0.100000  0.950000
Nb2693  Nb  0.725000  0.125000  0.975000
W2659  W  0.750000  0.100000  0.950000
W2660  W  0.775000  0.125000  0.975000
W2661  W  0.800000  0.100000  0.950000
Mo2695  Mo  0.825000  0.125000  0.975000
Mo2696  Mo  0.850000  0.100000  0.950000
Nb2694  Nb  0.875000  0.125000  0.975000
Nb2695  Nb  0.900000  0.100000  0.950000
Nb2696  Nb  0.925000  0.125000  0.975000
W2662  W  0.950000  0.100000  0.950000
W2663  W  0.975000  0.125000  0.975000
Mo2697  Mo  0.500000  0.150000  0.950000
W2664  W  0.525000  0.175000  0.975000
Nb2697  Nb  0.550000  0.150000  0.950000
W2665  W  0.575000  0.175000  0.975000
Nb2698  Nb  0.600000  0.150000  0.950000
W2666  W  0.625000  0.175000  0.975000
Ta2666  Ta  0.650000  0.150000  0.950000
Ta2667  Ta  0.675000  0.175000  0.975000
Mo2698  Mo  0.700000  0.150000  0.950000
Mo2699  Mo  0.725000  0.175000  0.975000
Nb2699  Nb  0.750000  0.150000  0.950000
W2667  W  0.775000  0.175000  0.975000
Mo2700  Mo  0.800000  0.150000  0.950000
W2668  W  0.825000  0.175000  0.975000
Ta2668  Ta  0.850000  0.150000  0.950000
Nb2700  Nb  0.875000  0.175000  0.975000
Mo2701  Mo  0.900000  0.150000  0.950000
Mo2702  Mo  0.925000  0.175000  0.975000
Mo2703  Mo  0.950000  0.150000  0.950000
W2669  W  0.975000  0.175000  0.975000
W2670  W  0.500000  0.200000  0.950000
Ta2669  Ta  0.525000  0.225000  0.975000
Ta2670  Ta  0.550000  0.200000  0.950000
Mo2704  Mo  0.575000  0.225000  0.975000
Ta2671  Ta  0.600000  0.200000  0.950000
Mo2705  Mo  0.625000  0.225000  0.975000
Nb2701  Nb  0.650000  0.200000  0.950000
Nb2702  Nb  0.675000  0.225000  0.975000
W2671  W  0.700000  0.200000  0.950000
Mo2706  Mo  0.725000  0.225000  0.975000
Ta2672  Ta  0.750000  0.200000  0.950000
W2672  W  0.775000  0.225000  0.975000
Ta2673  Ta  0.800000  0.200000  0.950000
Mo2707  Mo  0.825000  0.225000  0.975000
Mo2708  Mo  0.850000  0.200000  0.950000
Mo2709  Mo  0.875000  0.225000  0.975000
Nb2703  Nb  0.900000  0.200000  0.950000
Mo2710  Mo  0.925000  0.225000  0.975000
W2673  W  0.950000  0.200000  0.950000
Mo2711  Mo  0.975000  0.225000  0.975000
W2674  W  0.500000  0.250000  0.950000
Ta2674  Ta  0.525000  0.275000  0.975000
W2675  W  0.550000  0.250000  0.950000
Ta2675  Ta  0.575000  0.275000  0.975000
W2676  W  0.600000  0.250000  0.950000
W2677  W  0.625000  0.275000  0.975000
Mo2712  Mo  0.650000  0.250000  0.950000
W2678  W  0.675000  0.275000  0.975000
Ta2676  Ta  0.700000  0.250000  0.950000
W2679  W  0.725000  0.275000  0.975000
Nb2704  Nb  0.750000  0.250000  0.950000
Nb2705  Nb  0.775000  0.275000  0.975000
Ta2677  Ta  0.800000  0.250000  0.950000
Mo2713  Mo  0.825000  0.275000  0.975000
Nb2706  Nb  0.850000  0.250000  0.950000
Mo2714  Mo  0.875000  0.275000  0.975000
Ta2678  Ta  0.900000  0.250000  0.950000
Ta2679  Ta  0.925000  0.275000  0.975000
Mo2715  Mo  0.950000  0.250000  0.950000
W2680  W  0.975000  0.275000  0.975000
Nb2707  Nb  0.500000  0.300000  0.950000
Nb2708  Nb  0.525000  0.325000  0.975000
W2681  W  0.550000  0.300000  0.950000
Ta2680  Ta  0.575000  0.325000  0.975000
Ta2681  Ta  0.600000  0.300000  0.950000
Nb2709  Nb  0.625000  0.325000  0.975000
Nb2710  Nb  0.650000  0.300000  0.950000
W2682  W  0.675000  0.325000  0.975000
Ta2682  Ta  0.700000  0.300000  0.950000
W2683  W  0.725000  0.325000  0.975000
Nb2711  Nb  0.750000  0.300000  0.950000
Ta2683  Ta  0.775000  0.325000  0.975000
W2684  W  0.800000  0.300000  0.950000
W2685  W  0.825000  0.325000  0.975000
Mo2716  Mo  0.850000  0.300000  0.950000
Nb2712  Nb  0.875000  0.325000  0.975000
Mo2717  Mo  0.900000  0.300000  0.950000
Nb2713  Nb  0.925000  0.325000  0.975000
Nb2714  Nb  0.950000  0.300000  0.950000
Mo2718  Mo  0.975000  0.325000  0.975000
Nb2715  Nb  0.500000  0.350000  0.000000
Mo2719  Mo  0.525000  0.375000  0.025000
Ta2684  Ta  0.550000  0.350000  0.000000
W2686  W  0.575000  0.375000  0.025000
Mo2720  Mo  0.600000  0.350000  0.000000
W2687  W  0.625000  0.375000  0.025000
Nb2716  Nb  0.650000  0.350000  0.000000
W2688  W  0.675000  0.375000  0.025000
W2689  W  0.700000  0.350000  0.000000
Mo2721  Mo  0.725000  0.375000  0.025000
W2690  W  0.750000  0.350000  0.000000
Ta2685  Ta  0.775000  0.375000  0.025000
W2691  W  0.800000  0.350000  0.000000
Ta2686  Ta  0.825000  0.375000  0.025000
Ta2687  Ta  0.850000  0.350000  0.000000
W2692  W  0.875000  0.375000  0.025000
Nb2717  Nb  0.900000  0.350000  0.000000
W2693  W  0.925000  0.375000  0.025000
Ta2688  Ta  0.950000  0.350000  0.000000
Ta2689  Ta  0.975000  0.375000  0.025000
Mo2722  Mo  0.500000  0.400000  0.000000
W2694  W  0.525000  0.425000  0.025000
Mo2723  Mo  0.550000  0.400000  0.000000
Ta2690  Ta  0.575000  0.425000  0.025000
Ta2691  Ta  0.600000  0.400000  0.000000
Mo2724  Mo  0.625000  0.425000  0.025000
Nb2718  Nb  0.650000  0.400000  0.000000
Ta2692  Ta  0.675000  0.425000  0.025000
W2695  W  0.700000  0.400000  0.000000
Nb2719  Nb  0.725000  0.425000  0.025000
Nb2720  Nb  0.750000  0.400000  0.000000
Ta2693  Ta  0.775000  0.425000  0.025000
Nb2721  Nb  0.800000  0.400000  0.000000
Mo2725  Mo  0.825000  0.425000  0.025000
Ta2694  Ta  0.850000  0.400000  0.000000
W2696  W  0.875000  0.425000  0.025000
Mo2726  Mo  0.900000  0.400000  0.000000
Nb2722  Nb  0.925000  0.425000  0.025000
Nb2723  Nb  0.950000  0.400000  0.000000
Ta2695  Ta  0.975000  0.425000  0.025000
Ta2696  Ta  0.500000  0.450000  0.000000
Ta2697  Ta  0.525000  0.475000  0.025000
Nb2724  Nb  0.550000  0.450000  0.000000
Mo2727  Mo  0.575000  0.475000  0.025000
W2697  W  0.600000  0.450000  0.000000
Nb2725  Nb  0.625000  0.475000  0.025000
Ta2698  Ta  0.650000  0.450000  0.000000
W2698  W  0.675000  0.475000  0.025000
W2699  W  0.700000  0.450000  0.000000
Mo2728  Mo  0.725000  0.475000  0.025000
Mo2729  Mo  0.750000  0.450000  0.000000
Nb2726  Nb  0.775000  0.475000  0.025000
Nb2727  Nb  0.800000  0.450000  0.000000
Ta2699  Ta  0.825000  0.475000  0.025000
Nb2728  Nb  0.850000  0.450000  0.000000
W2700  W  0.875000  0.475000  0.025000
Mo2730  Mo  0.900000  0.450000  0.000000
Nb2729  Nb  0.925000  0.475000  0.025000
Nb2730  Nb  0.950000  0.450000  0.000000
Nb2731  Nb  0.975000  0.475000  0.025000
Mo2731  Mo  0.500000  0.500000  0.000000
W2701  W  0.525000  0.525000  0.025000
Ta2700  Ta  0.550000  0.500000  0.000000
Nb2732  Nb  0.575000  0.525000  0.025000
Ta2701  Ta  0.600000  0.500000  0.000000
Mo2732  Mo  0.625000  0.525000  0.025000
Mo2733  Mo  0.650000  0.500000  0.000000
Ta2702  Ta  0.675000  0.525000  0.025000
Nb2733  Nb  0.700000  0.500000  0.000000
Mo2734  Mo  0.725000  0.525000  0.025000
Nb2734  Nb  0.750000  0.500000  0.000000
Nb2735  Nb  0.775000  0.525000  0.025000
Nb2736  Nb  0.800000  0.500000  0.000000
Mo2735  Mo  0.825000  0.525000  0.025000
Nb2737  Nb  0.850000  0.500000  0.000000
W2702  W  0.875000  0.525000  0.025000
Nb2738  Nb  0.900000  0.500000  0.000000
Mo2736  Mo  0.925000  0.525000  0.025000
W2703  W  0.950000  0.500000  0.000000
Ta2703  Ta  0.975000  0.525000  0.025000
W2704  W  0.500000  0.550000  0.000000
Ta2704  Ta  0.525000  0.575000  0.025000
Nb2739  Nb  0.550000  0.550000  0.000000
Nb2740  Nb  0.575000  0.575000  0.025000
Ta2705  Ta  0.600000  0.550000  0.000000
Ta2706  Ta  0.625000  0.575000  0.025000
Ta2707  Ta  0.650000  0.550000  0.000000
Ta2708  Ta  0.675000  0.575000  0.025000
Nb2741  Nb  0.700000  0.550000  0.000000
Mo2737  Mo  0.725000  0.575000  0.025000
Mo2738  Mo  0.750000  0.550000  0.000000
Mo2739  Mo  0.775000  0.575000  0.025000
Mo2740  Mo  0.800000  0.550000  0.000000
Nb2742  Nb  0.825000  0.575000  0.025000
Mo2741  Mo  0.850000  0.550000  0.000000
Mo2742  Mo  0.875000  0.575000  0.025000
W2705  W  0.900000  0.550000  0.000000
W2706  W  0.925000  0.575000  0.025000
Mo2743  Mo  0.950000  0.550000  0.000000
Nb2743  Nb  0.975000  0.575000  0.025000
Mo2744  Mo  0.500000  0.600000  0.000000
Nb2744  Nb  0.525000  0.625000  0.025000
W2707  W  0.550000  0.600000  0.000000
W2708  W  0.575000  0.625000  0.025000
Ta2709  Ta  0.600000  0.600000  0.000000
W2709  W  0.625000  0.625000  0.025000
Ta2710  Ta  0.650000  0.600000  0.000000
W2710  W  0.675000  0.625000  0.025000
Nb2745  Nb  0.700000  0.600000  0.000000
Mo2745  Mo  0.725000  0.625000  0.025000
Nb2746  Nb  0.750000  0.600000  0.000000
Mo2746  Mo  0.775000  0.625000  0.025000
Nb2747  Nb  0.800000  0.600000  0.000000
Mo2747  Mo  0.825000  0.625000  0.025000
Ta2711  Ta  0.850000  0.600000  0.000000
Ta2712  Ta  0.875000  0.625000  0.025000
Mo2748  Mo  0.900000  0.600000  0.000000
W2711  W  0.925000  0.625000  0.025000
W2712  W  0.950000  0.600000  0.000000
Nb2748  Nb  0.975000  0.625000  0.025000
Nb2749  Nb  0.500000  0.650000  0.000000
Mo2749  Mo  0.550000  0.650000  0.000000
Nb2750  Nb  0.600000  0.650000  0.000000
Ta2713  Ta  0.650000  0.650000  0.000000
Ta2714  Ta  0.700000  0.650000  0.000000
Mo2750  Mo  0.750000  0.650000  0.000000
Nb2751  Nb  0.800000  0.650000  0.000000
Mo2751  Mo  0.850000  0.650000  0.000000
Nb2752  Nb  0.900000  0.650000  0.000000
W2713  W  0.950000  0.650000  0.000000
Mo2752  Mo  0.500000  0.350000  0.050000
Ta2715  Ta  0.525000  0.375000  0.075000
Mo2753  Mo  0.550000  0.350000  0.050000
Nb2753  Nb  0.575000  0.375000  0.075000
Mo2754  Mo  0.600000  0.350000  0.050000
Mo2755  Mo  0.625000  0.375000  0.075000
Nb2754  Nb  0.650000  0.350000  0.050000
Nb2755  Nb  0.675000  0.375000  0.075000
Ta2716  Ta  0.700000  0.350000  0.050000
Nb2756  Nb  0.725000  0.375000  0.075000
W2714  W  0.750000  0.350000  0.050000
Ta2717  Ta  0.775000  0.375000  0.075000
W2715  W  0.800000  0.350000  0.050000
Mo2756  Mo  0.825000  0.375000  0.075000
Nb2757  Nb  0.850000  0.350000  0.050000
Ta2718  Ta  0.875000  0.375000  0.075000
Ta2719  Ta  0.900000  0.350000  0.050000
Nb2758  Nb  0.925000  0.375000  0.075000
Ta2720  Ta  0.950000  0.350000  0.050000
Nb2759  Nb  0.975000  0.375000  0.075000
Mo2757  Mo  0.500000  0.400000  0.050000
W2716  W  0.525000  0.425000  0.075000
Nb2760  Nb  0.550000  0.400000  0.050000
Mo2758  Mo  0.575000  0.425000  0.075000
Mo2759  Mo  0.600000  0.400000  0.050000
Nb2761  Nb  0.625000  0.425000  0.075000
Nb2762  Nb  0.650000  0.400000  0.050000
Mo2760  Mo  0.675000  0.425000  0.075000
Nb2763  Nb  0.700000  0.400000  0.050000
Nb2764  Nb  0.725000  0.425000  0.075000
Nb2765  Nb  0.750000  0.400000  0.050000
W2717  W  0.775000  0.425000  0.075000
Mo2761  Mo  0.800000  0.400000  0.050000
Nb2766  Nb  0.825000  0.425000  0.075000
W2718  W  0.850000  0.400000  0.050000
Mo2762  Mo  0.875000  0.425000  0.075000
W2719  W  0.900000  0.400000  0.050000
Ta2721  Ta  0.925000  0.425000  0.075000
W2720  W  0.950000  0.400000  0.050000
Mo2763  Mo  0.975000  0.425000  0.075000
W2721  W  0.500000  0.450000  0.050000
Mo2764  Mo  0.525000  0.475000  0.075000
Mo2765  Mo  0.550000  0.450000  0.050000
Ta2722  Ta  0.575000  0.475000  0.075000
Mo2766  Mo  0.600000  0.450000  0.050000
Ta2723  Ta  0.625000  0.475000  0.075000
Ta2724  Ta  0.650000  0.450000  0.050000
Nb2767  Nb  0.675000  0.475000  0.075000
Mo2767  Mo  0.700000  0.450000  0.050000
Ta2725  Ta  0.725000  0.475000  0.075000
Mo2768  Mo  0.750000  0.450000  0.050000
Ta2726  Ta  0.775000  0.475000  0.075000
Mo2769  Mo  0.800000  0.450000  0.050000
Mo2770  Mo  0.825000  0.475000  0.075000
Mo2771  Mo  0.850000  0.450000  0.050000
W2722  W  0.875000  0.475000  0.075000
Ta2727  Ta  0.900000  0.450000  0.050000
Ta2728  Ta  0.925000  0.475000  0.075000
Ta2729  Ta  0.950000  0.450000  0.050000
W2723  W  0.975000  0.475000  0.075000
Nb2768  Nb  0.500000  0.500000  0.050000
W2724  W  0.525000  0.525000  0.075000
W2725  W  0.550000  0.500000  0.050000
Ta2730  Ta  0.575000  0.525000  0.075000
Nb2769  Nb  0.600000  0.500000  0.050000
Mo2772  Mo  0.625000  0.525000  0.075000
W2726  W  0.650000  0.500000  0.050000
Ta2731  Ta  0.675000  0.525000  0.075000
W2727  W  0.700000  0.500000  0.050000
Ta2732  Ta  0.725000  0.525000  0.075000
Nb2770  Nb  0.750000  0.500000  0.050000
W2728  W  0.775000  0.525000  0.075000
W2729  W  0.800000  0.500000  0.050000
W2730  W  0.825000  0.525000  0.075000
Ta2733  Ta  0.850000  0.500000  0.050000
Nb2771  Nb  0.875000  0.525000  0.075000
Ta2734  Ta  0.900000  0.500000  0.050000
Mo2773  Mo  0.925000  0.525000  0.075000
Nb2772  Nb  0.950000  0.500000  0.050000
W2731  W  0.975000  0.525000  0.075000
Ta2735  Ta  0.500000  0.550000  0.050000
Mo2774  Mo  0.525000  0.575000  0.075000
W2732  W  0.550000  0.550000  0.050000
Nb2773  Nb  0.575000  0.575000  0.075000
W2733  W  0.600000  0.550000  0.050000
Mo2775  Mo  0.625000  0.575000  0.075000
W2734  W  0.650000  0.550000  0.050000
Ta2736  Ta  0.675000  0.575000  0.075000
Mo2776  Mo  0.700000  0.550000  0.050000
W2735  W  0.725000  0.575000  0.075000
Nb2774  Nb  0.750000  0.550000  0.050000
Mo2777  Mo  0.775000  0.575000  0.075000
W2736  W  0.800000  0.550000  0.050000
Ta2737  Ta  0.825000  0.575000  0.075000
Mo2778  Mo  0.850000  0.550000  0.050000
W2737  W  0.875000  0.575000  0.075000
Mo2779  Mo  0.900000  0.550000  0.050000
W2738  W  0.925000  0.575000  0.075000
Nb2775  Nb  0.950000  0.550000  0.050000
Mo2780  Mo  0.975000  0.575000  0.075000
Nb2776  Nb  0.500000  0.600000  0.050000
Ta2738  Ta  0.525000  0.625000  0.075000
Mo2781  Mo  0.550000  0.600000  0.050000
W2739  W  0.575000  0.625000  0.075000
W2740  W  0.600000  0.600000  0.050000
Ta2739  Ta  0.625000  0.625000  0.075000
W2741  W  0.650000  0.600000  0.050000
Mo2782  Mo  0.675000  0.625000  0.075000
Ta2740  Ta  0.700000  0.600000  0.050000
Nb2777  Nb  0.725000  0.625000  0.075000
Nb2778  Nb  0.750000  0.600000  0.050000
Ta2741  Ta  0.775000  0.625000  0.075000
Nb2779  Nb  0.800000  0.600000  0.050000
Mo2783  Mo  0.825000  0.625000  0.075000
Nb2780  Nb  0.850000  0.600000  0.050000
W2742  W  0.875000  0.625000  0.075000
Nb2781  Nb  0.900000  0.600000  0.050000
Ta2742  Ta  0.925000  0.625000  0.075000
Mo2784  Mo  0.950000  0.600000  0.050000
Mo2785  Mo  0.975000  0.625000  0.075000
Nb2782  Nb  0.500000  0.650000  0.050000
Ta2743  Ta  0.550000  0.650000  0.050000
Nb2783  Nb  0.600000  0.650000  0.050000
Ta2744  Ta  0.650000  0.650000  0.050000
Ta2745  Ta  0.700000  0.650000  0.050000
Nb2784  Nb  0.750000  0.650000  0.050000
Ta2746  Ta  0.800000  0.650000  0.050000
Nb2785  Nb  0.850000  0.650000  0.050000
Ta2747  Ta  0.900000  0.650000  0.050000
Mo2786  Mo  0.950000  0.650000  0.050000
W2743  W  0.500000  0.350000  0.100000
Nb2786  Nb  0.525000  0.375000  0.125000
Mo2787  Mo  0.550000  0.350000  0.100000
Nb2787  Nb  0.575000  0.375000  0.125000
Nb2788  Nb  0.600000  0.350000  0.100000
Nb2789  Nb  0.625000  0.375000  0.125000
Nb2790  Nb  0.650000  0.350000  0.100000
Ta2748  Ta  0.675000  0.375000  0.125000
Nb2791  Nb  0.700000  0.350000  0.100000
Ta2749  Ta  0.725000  0.375000  0.125000
W2744  W  0.750000  0.350000  0.100000
Mo2788  Mo  0.775000  0.375000  0.125000
W2745  W  0.800000  0.350000  0.100000
Ta2750  Ta  0.825000  0.375000  0.125000
Nb2792  Nb  0.850000  0.350000  0.100000
Nb2793  Nb  0.875000  0.375000  0.125000
Nb2794  Nb  0.900000  0.350000  0.100000
Nb2795  Nb  0.925000  0.375000  0.125000
W2746  W  0.950000  0.350000  0.100000
Nb2796  Nb  0.975000  0.375000  0.125000
Mo2789  Mo  0.500000  0.400000  0.100000
W2747  W  0.525000  0.425000  0.125000
Nb2797  Nb  0.550000  0.400000  0.100000
Ta2751  Ta  0.575000  0.425000  0.125000
Mo2790  Mo  0.600000  0.400000  0.100000
W2748  W  0.625000  0.425000  0.125000
W2749  W  0.650000  0.400000  0.100000
Ta2752  Ta  0.675000  0.425000  0.125000
Nb2798  Nb  0.700000  0.400000  0.100000
Ta2753  Ta  0.725000  0.425000  0.125000
Ta2754  Ta  0.750000  0.400000  0.100000
Nb2799  Nb  0.775000  0.425000  0.125000
Nb2800  Nb  0.800000  0.400000  0.100000
Ta2755  Ta  0.825000  0.425000  0.125000
Mo2791  Mo  0.850000  0.400000  0.100000
Mo2792  Mo  0.875000  0.425000  0.125000
Mo2793  Mo  0.900000  0.400000  0.100000
Nb2801  Nb  0.925000  0.425000  0.125000
Mo2794  Mo  0.950000  0.400000  0.100000
W2750  W  0.975000  0.425000  0.125000
Mo2795  Mo  0.500000  0.450000  0.100000
W2751  W  0.525000  0.475000  0.125000
Nb2802  Nb  0.550000  0.450000  0.100000
Nb2803  Nb  0.575000  0.475000  0.125000
Ta2756  Ta  0.600000  0.450000  0.100000
Ta2757  Ta  0.625000  0.475000  0.125000
W2752  W  0.650000  0.450000  0.100000
Nb2804  Nb  0.675000  0.475000  0.125000
Mo2796  Mo  0.700000  0.450000  0.100000
Ta2758  Ta  0.725000  0.475000  0.125000
Ta2759  Ta  0.750000  0.450000  0.100000
Ta2760  Ta  0.775000  0.475000  0.125000
Mo2797  Mo  0.800000  0.450000  0.100000
Nb2805  Nb  0.825000  0.475000  0.125000
Ta2761  Ta  0.850000  0.450000  0.100000
Mo2798  Mo  0.875000  0.475000  0.125000
Mo2799  Mo  0.900000  0.450000  0.100000
Ta2762  Ta  0.925000  0.475000  0.125000
Mo2800  Mo  0.950000  0.450000  0.100000
Ta2763  Ta  0.975000  0.475000  0.125000
Mo2801  Mo  0.500000  0.500000  0.100000
W2753  W  0.525000  0.525000  0.125000
W2754  W  0.550000  0.500000  0.100000
Mo2802  Mo  0.575000  0.525000  0.125000
W2755  W  0.600000  0.500000  0.100000
Ta2764  Ta  0.625000  0.525000  0.125000
W2756  W  0.650000  0.500000  0.100000
Ta2765  Ta  0.675000  0.525000  0.125000
Nb2806  Nb  0.700000  0.500000  0.100000
Mo2803  Mo  0.725000  0.525000  0.125000
Mo2804  Mo  0.750000  0.500000  0.100000
W2757  W  0.775000  0.525000  0.125000
Mo2805  Mo  0.800000  0.500000  0.100000
Mo2806  Mo  0.825000  0.525000  0.125000
Mo2807  Mo  0.850000  0.500000  0.100000
Ta2766  Ta  0.875000  0.525000  0.125000
W2758  W  0.900000  0.500000  0.100000
W2759  W  0.925000  0.525000  0.125000
Mo2808  Mo  0.950000  0.500000  0.100000
Nb2807  Nb  0.975000  0.525000  0.125000
W2760  W  0.500000  0.550000  0.100000
Nb2808  Nb  0.525000  0.575000  0.125000
Nb2809  Nb  0.550000  0.550000  0.100000
Ta2767  Ta  0.575000  0.575000  0.125000
Nb2810  Nb  0.600000  0.550000  0.100000
W2761  W  0.625000  0.575000  0.125000
Ta2768  Ta  0.650000  0.550000  0.100000
Nb2811  Nb  0.675000  0.575000  0.125000
Ta2769  Ta  0.700000  0.550000  0.100000
W2762  W  0.725000  0.575000  0.125000
Ta2770  Ta  0.750000  0.550000  0.100000
Mo2809  Mo  0.775000  0.575000  0.125000
W2763  W  0.800000  0.550000  0.100000
W2764  W  0.825000  0.575000  0.125000
W2765  W  0.850000  0.550000  0.100000
W2766  W  0.875000  0.575000  0.125000
W2767  W  0.900000  0.550000  0.100000
Mo2810  Mo  0.925000  0.575000  0.125000
Ta2771  Ta  0.950000  0.550000  0.100000
Ta2772  Ta  0.975000  0.575000  0.125000
Nb2812  Nb  0.500000  0.600000  0.100000
W2768  W  0.525000  0.625000  0.125000
Nb2813  Nb  0.550000  0.600000  0.100000
Mo2811  Mo  0.575000  0.625000  0.125000
Nb2814  Nb  0.600000  0.600000  0.100000
Mo2812  Mo  0.625000  0.625000  0.125000
Ta2773  Ta  0.650000  0.600000  0.100000
Mo2813  Mo  0.675000  0.625000  0.125000
Nb2815  Nb  0.700000  0.600000  0.100000
W2769  W  0.725000  0.625000  0.125000
Ta2774  Ta  0.750000  0.600000  0.100000
Ta2775  Ta  0.775000  0.625000  0.125000
Nb2816  Nb  0.800000  0.600000  0.100000
Nb2817  Nb  0.825000  0.625000  0.125000
Ta2776  Ta  0.850000  0.600000  0.100000
Ta2777  Ta  0.875000  0.625000  0.125000
Mo2814  Mo  0.900000  0.600000  0.100000
Nb2818  Nb  0.925000  0.625000  0.125000
W2770  W  0.950000  0.600000  0.100000
Mo2815  Mo  0.975000  0.625000  0.125000
Ta2778  Ta  0.500000  0.650000  0.100000
Nb2819  Nb  0.550000  0.650000  0.100000
W2771  W  0.600000  0.650000  0.100000
W2772  W  0.650000  0.650000  0.100000
Nb2820  Nb  0.700000  0.650000  0.100000
W2773  W  0.750000  0.650000  0.100000
Ta2779  Ta  0.800000  0.650000  0.100000
W2774  W  0.850000  0.650000  0.100000
Mo2816  Mo  0.900000  0.650000  0.100000
Ta2780  Ta  0.950000  0.650000  0.100000
Ta2781  Ta  0.500000  0.350000  0.150000
Nb2821  Nb  0.525000  0.375000  0.175000
Mo2817  Mo  0.550000  0.350000  0.150000
Nb2822  Nb  0.575000  0.375000  0.175000
Mo2818  Mo  0.600000  0.350000  0.150000
Nb2823  Nb  0.625000  0.375000  0.175000
Ta2782  Ta  0.650000  0.350000  0.150000
Nb2824  Nb  0.675000  0.375000  0.175000
Ta2783  Ta  0.700000  0.350000  0.150000
Mo2819  Mo  0.725000  0.375000  0.175000
Mo2820  Mo  0.750000  0.350000  0.150000
Nb2825  Nb  0.775000  0.375000  0.175000
W2775  W  0.800000  0.350000  0.150000
W2776  W  0.825000  0.375000  0.175000
Mo2821  Mo  0.850000  0.350000  0.150000
Mo2822  Mo  0.875000  0.375000  0.175000
W2777  W  0.900000  0.350000  0.150000
W2778  W  0.925000  0.375000  0.175000
Mo2823  Mo  0.950000  0.350000  0.150000
Ta2784  Ta  0.975000  0.375000  0.175000
W2779  W  0.500000  0.400000  0.150000
Ta2785  Ta  0.525000  0.425000  0.175000
Nb2826  Nb  0.550000  0.400000  0.150000
Mo2824  Mo  0.575000  0.425000  0.175000
Ta2786  Ta  0.600000  0.400000  0.150000
Mo2825  Mo  0.625000  0.425000  0.175000
Ta2787  Ta  0.650000  0.400000  0.150000
Ta2788  Ta  0.675000  0.425000  0.175000
W2780  W  0.700000  0.400000  0.150000
W2781  W  0.725000  0.425000  0.175000
W2782  W  0.750000  0.400000  0.150000
Mo2826  Mo  0.775000  0.425000  0.175000
Mo2827  Mo  0.800000  0.400000  0.150000
Nb2827  Nb  0.825000  0.425000  0.175000
Ta2789  Ta  0.850000  0.400000  0.150000
Mo2828  Mo  0.875000  0.425000  0.175000
Ta2790  Ta  0.900000  0.400000  0.150000
Nb2828  Nb  0.925000  0.425000  0.175000
Ta2791  Ta  0.950000  0.400000  0.150000
W2783  W  0.975000  0.425000  0.175000
Ta2792  Ta  0.500000  0.450000  0.150000
Nb2829  Nb  0.525000  0.475000  0.175000
Ta2793  Ta  0.550000  0.450000  0.150000
Ta2794  Ta  0.575000  0.475000  0.175000
Mo2829  Mo  0.600000  0.450000  0.150000
Ta2795  Ta  0.625000  0.475000  0.175000
W2784  W  0.650000  0.450000  0.150000
Ta2796  Ta  0.675000  0.475000  0.175000
Mo2830  Mo  0.700000  0.450000  0.150000
Nb2830  Nb  0.725000  0.475000  0.175000
W2785  W  0.750000  0.450000  0.150000
W2786  W  0.775000  0.475000  0.175000
Ta2797  Ta  0.800000  0.450000  0.150000
Nb2831  Nb  0.825000  0.475000  0.175000
Mo2831  Mo  0.850000  0.450000  0.150000
Nb2832  Nb  0.875000  0.475000  0.175000
Ta2798  Ta  0.900000  0.450000  0.150000
Ta2799  Ta  0.925000  0.475000  0.175000
W2787  W  0.950000  0.450000  0.150000
Ta2800  Ta  0.975000  0.475000  0.175000
Nb2833  Nb  0.500000  0.500000  0.150000
W2788  W  0.525000  0.525000  0.175000
Ta2801  Ta  0.550000  0.500000  0.150000
Ta2802  Ta  0.575000  0.525000  0.175000
W2789  W  0.600000  0.500000  0.150000
Mo2832  Mo  0.625000  0.525000  0.175000
W2790  W  0.650000  0.500000  0.150000
Nb2834  Nb  0.675000  0.525000  0.175000
Nb2835  Nb  0.700000  0.500000  0.150000
Nb2836  Nb  0.725000  0.525000  0.175000
Nb2837  Nb  0.750000  0.500000  0.150000
Mo2833  Mo  0.775000  0.525000  0.175000
Mo2834  Mo  0.800000  0.500000  0.150000
W2791  W  0.825000  0.525000  0.175000
Nb2838  Nb  0.850000  0.500000  0.150000
W2792  W  0.875000  0.525000  0.175000
Mo2835  Mo  0.900000  0.500000  0.150000
W2793  W  0.925000  0.525000  0.175000
Ta2803  Ta  0.950000  0.500000  0.150000
Nb2839  Nb  0.975000  0.525000  0.175000
Ta2804  Ta  0.500000  0.550000  0.150000
W2794  W  0.525000  0.575000  0.175000
W2795  W  0.550000  0.550000  0.150000
W2796  W  0.575000  0.575000  0.175000
Nb2840  Nb  0.600000  0.550000  0.150000
Nb2841  Nb  0.625000  0.575000  0.175000
Ta2805  Ta  0.650000  0.550000  0.150000
Mo2836  Mo  0.675000  0.575000  0.175000
W2797  W  0.700000  0.550000  0.150000
Mo2837  Mo  0.725000  0.575000  0.175000
Ta2806  Ta  0.750000  0.550000  0.150000
Mo2838  Mo  0.775000  0.575000  0.175000
Nb2842  Nb  0.800000  0.550000  0.150000
W2798  W  0.825000  0.575000  0.175000
Nb2843  Nb  0.850000  0.550000  0.150000
W2799  W  0.875000  0.575000  0.175000
Nb2844  Nb  0.900000  0.550000  0.150000
Nb2845  Nb  0.925000  0.575000  0.175000
Nb2846  Nb  0.950000  0.550000  0.150000
W2800  W  0.975000  0.575000  0.175000
Nb2847  Nb  0.500000  0.600000  0.150000
Nb2848  Nb  0.525000  0.625000  0.175000
Mo2839  Mo  0.550000  0.600000  0.150000
Nb2849  Nb  0.575000  0.625000  0.175000
Nb2850  Nb  0.600000  0.600000  0.150000
Ta2807  Ta  0.625000  0.625000  0.175000
W2801  W  0.650000  0.600000  0.150000
W2802  W  0.675000  0.625000  0.175000
Ta2808  Ta  0.700000  0.600000  0.150000
Mo2840  Mo  0.725000  0.625000  0.175000
Mo2841  Mo  0.750000  0.600000  0.150000
Mo2842  Mo  0.775000  0.625000  0.175000
Mo2843  Mo  0.800000  0.600000  0.150000
Mo2844  Mo  0.825000  0.625000  0.175000
Nb2851  Nb  0.850000  0.600000  0.150000
W2803  W  0.875000  0.625000  0.175000
Mo2845  Mo  0.900000  0.600000  0.150000
Ta2809  Ta  0.925000  0.625000  0.175000
W2804  W  0.950000  0.600000  0.150000
Mo2846  Mo  0.975000  0.625000  0.175000
Nb2852  Nb  0.500000  0.650000  0.150000
Nb2853  Nb  0.550000  0.650000  0.150000
Mo2847  Mo  0.600000  0.650000  0.150000
W2805  W  0.650000  0.650000  0.150000
W2806  W  0.700000  0.650000  0.150000
Nb2854  Nb  0.750000  0.650000  0.150000
Mo2848  Mo  0.800000  0.650000  0.150000
Nb2855  Nb  0.850000  0.650000  0.150000
Nb2856  Nb  0.900000  0.650000  0.150000
Mo2849  Mo  0.950000  0.650000  0.150000
Mo2850  Mo  0.500000  0.350000  0.200000
Nb2857  Nb  0.525000  0.375000  0.225000
Mo2851  Mo  0.550000  0.350000  0.200000
Mo2852  Mo  0.575000  0.375000  0.225000
Mo2853  Mo  0.600000  0.350000  0.200000
Mo2854  Mo  0.625000  0.375000  0.225000
Mo2855  Mo  0.650000  0.350000  0.200000
Nb2858  Nb  0.675000  0.375000  0.225000
Mo2856  Mo  0.700000  0.350000  0.200000
Ta2810  Ta  0.725000  0.375000  0.225000
W2807  W  0.750000  0.350000  0.200000
Ta2811  Ta  0.775000  0.375000  0.225000
W2808  W  0.800000  0.350000  0.200000
Mo2857  Mo  0.825000  0.375000  0.225000
W2809  W  0.850000  0.350000  0.200000
Mo2858  Mo  0.875000  0.375000  0.225000
Mo2859  Mo  0.900000  0.350000  0.200000
Mo2860  Mo  0.925000  0.375000  0.225000
Ta2812  Ta  0.950000  0.350000  0.200000
Mo2861  Mo  0.975000  0.375000  0.225000
Mo2862  Mo  0.500000  0.400000  0.200000
Mo2863  Mo  0.525000  0.425000  0.225000
Nb2859  Nb  0.550000  0.400000  0.200000
Nb2860  Nb  0.575000  0.425000  0.225000
Mo2864  Mo  0.600000  0.400000  0.200000
Nb2861  Nb  0.625000  0.425000  0.225000
W2810  W  0.650000  0.400000  0.200000
W2811  W  0.675000  0.425000  0.225000
Nb2862  Nb  0.700000  0.400000  0.200000
Nb2863  Nb  0.725000  0.425000  0.225000
W2812  W  0.750000  0.400000  0.200000
Mo2865  Mo  0.775000  0.425000  0.225000
Ta2813  Ta  0.800000  0.400000  0.200000
Mo2866  Mo  0.825000  0.425000  0.225000
Nb2864  Nb  0.850000  0.400000  0.200000
Ta2814  Ta  0.875000  0.425000  0.225000
Mo2867  Mo  0.900000  0.400000  0.200000
Ta2815  Ta  0.925000  0.425000  0.225000
Nb2865  Nb  0.950000  0.400000  0.200000
Nb2866  Nb  0.975000  0.425000  0.225000
Mo2868  Mo  0.500000  0.450000  0.200000
Ta2816  Ta  0.525000  0.475000  0.225000
Mo2869  Mo  0.550000  0.450000  0.200000
W2813  W  0.575000  0.475000  0.225000
Ta2817  Ta  0.600000  0.450000  0.200000
Ta2818  Ta  0.625000  0.475000  0.225000
Nb2867  Nb  0.650000  0.450000  0.200000
Mo2870  Mo  0.675000  0.475000  0.225000
W2814  W  0.700000  0.450000  0.200000
Nb2868  Nb  0.725000  0.475000  0.225000
Nb2869  Nb  0.750000  0.450000  0.200000
Nb2870  Nb  0.775000  0.475000  0.225000
W2815  W  0.800000  0.450000  0.200000
Mo2871  Mo  0.825000  0.475000  0.225000
Nb2871  Nb  0.850000  0.450000  0.200000
Nb2872  Nb  0.875000  0.475000  0.225000
Mo2872  Mo  0.900000  0.450000  0.200000
Nb2873  Nb  0.925000  0.475000  0.225000
W2816  W  0.950000  0.450000  0.200000
Ta2819  Ta  0.975000  0.475000  0.225000
Ta2820  Ta  0.500000  0.500000  0.200000
W2817  W  0.525000  0.525000  0.225000
Ta2821  Ta  0.550000  0.500000  0.200000
Nb2874  Nb  0.575000  0.525000  0.225000
W2818  W  0.600000  0.500000  0.200000
Ta2822  Ta  0.625000  0.525000  0.225000
Ta2823  Ta  0.650000  0.500000  0.200000
Mo2873  Mo  0.675000  0.525000  0.225000
Ta2824  Ta  0.700000  0.500000  0.200000
Ta2825  Ta  0.725000  0.525000  0.225000
Mo2874  Mo  0.750000  0.500000  0.200000
Nb2875  Nb  0.775000  0.525000  0.225000
Mo2875  Mo  0.800000  0.500000  0.200000
Nb2876  Nb  0.825000  0.525000  0.225000
Nb2877  Nb  0.850000  0.500000  0.200000
Mo2876  Mo  0.875000  0.525000  0.225000
Mo2877  Mo  0.900000  0.500000  0.200000
Nb2878  Nb  0.925000  0.525000  0.225000
Mo2878  Mo  0.950000  0.500000  0.200000
Ta2826  Ta  0.975000  0.525000  0.225000
Nb2879  Nb  0.500000  0.550000  0.200000
Ta2827  Ta  0.525000  0.575000  0.225000
Mo2879  Mo  0.550000  0.550000  0.200000
Nb2880  Nb  0.575000  0.575000  0.225000
Nb2881  Nb  0.600000  0.550000  0.200000
Nb2882  Nb  0.625000  0.575000  0.225000
Ta2828  Ta  0.650000  0.550000  0.200000
Mo2880  Mo  0.675000  0.575000  0.225000
Nb2883  Nb  0.700000  0.550000  0.200000
Nb2884  Nb  0.725000  0.575000  0.225000
Ta2829  Ta  0.750000  0.550000  0.200000
W2819  W  0.775000  0.575000  0.225000
W2820  W  0.800000  0.550000  0.200000
Mo2881  Mo  0.825000  0.575000  0.225000
Nb2885  Nb  0.850000  0.550000  0.200000
W2821  W  0.875000  0.575000  0.225000
Nb2886  Nb  0.900000  0.550000  0.200000
Ta2830  Ta  0.925000  0.575000  0.225000
W2822  W  0.950000  0.550000  0.200000
W2823  W  0.975000  0.575000  0.225000
Nb2887  Nb  0.500000  0.600000  0.200000
Ta2831  Ta  0.525000  0.625000  0.225000
W2824  W  0.550000  0.600000  0.200000
Mo2882  Mo  0.575000  0.625000  0.225000
Ta2832  Ta  0.600000  0.600000  0.200000
Mo2883  Mo  0.625000  0.625000  0.225000
Mo2884  Mo  0.650000  0.600000  0.200000
Ta2833  Ta  0.675000  0.625000  0.225000
Mo2885  Mo  0.700000  0.600000  0.200000
Ta2834  Ta  0.725000  0.625000  0.225000
Ta2835  Ta  0.750000  0.600000  0.200000
Nb2888  Nb  0.775000  0.625000  0.225000
Ta2836  Ta  0.800000  0.600000  0.200000
Nb2889  Nb  0.825000  0.625000  0.225000
Nb2890  Nb  0.850000  0.600000  0.200000
Ta2837  Ta  0.875000  0.625000  0.225000
Ta2838  Ta  0.900000  0.600000  0.200000
Ta2839  Ta  0.925000  0.625000  0.225000
Ta2840  Ta  0.950000  0.600000  0.200000
Ta2841  Ta  0.975000  0.625000  0.225000
Ta2842  Ta  0.500000  0.650000  0.200000
W2825  W  0.550000  0.650000  0.200000
Mo2886  Mo  0.600000  0.650000  0.200000
W2826  W  0.650000  0.650000  0.200000
Nb2891  Nb  0.700000  0.650000  0.200000
Ta2843  Ta  0.750000  0.650000  0.200000
Mo2887  Mo  0.800000  0.650000  0.200000
Mo2888  Mo  0.850000  0.650000  0.200000
Ta2844  Ta  0.900000  0.650000  0.200000
Mo2889  Mo  0.950000  0.650000  0.200000
Nb2892  Nb  0.500000  0.350000  0.250000
Nb2893  Nb  0.525000  0.375000  0.275000
Mo2890  Mo  0.550000  0.350000  0.250000
Mo2891  Mo  0.575000  0.375000  0.275000
Ta2845  Ta  0.600000  0.350000  0.250000
W2827  W  0.625000  0.375000  0.275000
W2828  W  0.650000  0.350000  0.250000
Mo2892  Mo  0.675000  0.375000  0.275000
W2829  W  0.700000  0.350000  0.250000
W2830  W  0.725000  0.375000  0.275000
Ta2846  Ta  0.750000  0.350000  0.250000
W2831  W  0.775000  0.375000  0.275000
Nb2894  Nb  0.800000  0.350000  0.250000
Ta2847  Ta  0.825000  0.375000  0.275000
W2832  W  0.850000  0.350000  0.250000
W2833  W  0.875000  0.375000  0.275000
Ta2848  Ta  0.900000  0.350000  0.250000
Ta2849  Ta  0.925000  0.375000  0.275000
Mo2893  Mo  0.950000  0.350000  0.250000
W2834  W  0.975000  0.375000  0.275000
Ta2850  Ta  0.500000  0.400000  0.250000
Mo2894  Mo  0.525000  0.425000  0.275000
Mo2895  Mo  0.550000  0.400000  0.250000
Ta2851  Ta  0.575000  0.425000  0.275000
W2835  W  0.600000  0.400000  0.250000
W2836  W  0.625000  0.425000  0.275000
Nb2895  Nb  0.650000  0.400000  0.250000
Mo2896  Mo  0.675000  0.425000  0.275000
Ta2852  Ta  0.700000  0.400000  0.250000
Nb2896  Nb  0.725000  0.425000  0.275000
Nb2897  Nb  0.750000  0.400000  0.250000
Mo2897  Mo  0.775000  0.425000  0.275000
W2837  W  0.800000  0.400000  0.250000
W2838  W  0.825000  0.425000  0.275000
Ta2853  Ta  0.850000  0.400000  0.250000
Mo2898  Mo  0.875000  0.425000  0.275000
Ta2854  Ta  0.900000  0.400000  0.250000
W2839  W  0.925000  0.425000  0.275000
W2840  W  0.950000  0.400000  0.250000
Mo2899  Mo  0.975000  0.425000  0.275000
Nb2898  Nb  0.500000  0.450000  0.250000
W2841  W  0.525000  0.475000  0.275000
Nb2899  Nb  0.550000  0.450000  0.250000
W2842  W  0.575000  0.475000  0.275000
Mo2900  Mo  0.600000  0.450000  0.250000
Ta2855  Ta  0.625000  0.475000  0.275000
W2843  W  0.650000  0.450000  0.250000
Mo2901  Mo  0.675000  0.475000  0.275000
Mo2902  Mo  0.700000  0.450000  0.250000
Mo2903  Mo  0.725000  0.475000  0.275000
Ta2856  Ta  0.750000  0.450000  0.250000
Nb2900  Nb  0.775000  0.475000  0.275000
W2844  W  0.800000  0.450000  0.250000
Ta2857  Ta  0.825000  0.475000  0.275000
Ta2858  Ta  0.850000  0.450000  0.250000
Nb2901  Nb  0.875000  0.475000  0.275000
Ta2859  Ta  0.900000  0.450000  0.250000
W2845  W  0.925000  0.475000  0.275000
W2846  W  0.950000  0.450000  0.250000
Ta2860  Ta  0.975000  0.475000  0.275000
Nb2902  Nb  0.500000  0.500000  0.250000
Mo2904  Mo  0.525000  0.525000  0.275000
W2847  W  0.550000  0.500000  0.250000
Mo2905  Mo  0.575000  0.525000  0.275000
W2848  W  0.600000  0.500000  0.250000
Ta2861  Ta  0.625000  0.525000  0.275000
W2849  W  0.650000  0.500000  0.250000
Nb2903  Nb  0.675000  0.525000  0.275000
W2850  W  0.700000  0.500000  0.250000
Mo2906  Mo  0.725000  0.525000  0.275000
W2851  W  0.750000  0.500000  0.250000
Mo2907  Mo  0.775000  0.525000  0.275000
Nb2904  Nb  0.800000  0.500000  0.250000
Nb2905  Nb  0.825000  0.525000  0.275000
Mo2908  Mo  0.850000  0.500000  0.250000
Ta2862  Ta  0.875000  0.525000  0.275000
W2852  W  0.900000  0.500000  0.250000
Mo2909  Mo  0.925000  0.525000  0.275000
Ta2863  Ta  0.950000  0.500000  0.250000
Ta2864  Ta  0.975000  0.525000  0.275000
W2853  W  0.500000  0.550000  0.250000
W2854  W  0.525000  0.575000  0.275000
Nb2906  Nb  0.550000  0.550000  0.250000
Ta2865  Ta  0.575000  0.575000  0.275000
W2855  W  0.600000  0.550000  0.250000
Nb2907  Nb  0.625000  0.575000  0.275000
Ta2866  Ta  0.650000  0.550000  0.250000
Ta2867  Ta  0.675000  0.575000  0.275000
W2856  W  0.700000  0.550000  0.250000
Mo2910  Mo  0.725000  0.575000  0.275000
Ta2868  Ta  0.750000  0.550000  0.250000
Mo2911  Mo  0.775000  0.575000  0.275000
W2857  W  0.800000  0.550000  0.250000
Nb2908  Nb  0.825000  0.575000  0.275000
Mo2912  Mo  0.850000  0.550000  0.250000
Mo2913  Mo  0.875000  0.575000  0.275000
Mo2914  Mo  0.900000  0.550000  0.250000
Ta2869  Ta  0.925000  0.575000  0.275000
Nb2909  Nb  0.950000  0.550000  0.250000
Mo2915  Mo  0.975000  0.575000  0.275000
W2858  W  0.500000  0.600000  0.250000
Ta2870  Ta  0.525000  0.625000  0.275000
Ta2871  Ta  0.550000  0.600000  0.250000
Nb2910  Nb  0.575000  0.625000  0.275000
Ta2872  Ta  0.600000  0.600000  0.250000
Ta2873  Ta  0.625000  0.625000  0.275000
W2859  W  0.650000  0.600000  0.250000
Mo2916  Mo  0.675000  0.625000  0.275000
Ta2874  Ta  0.700000  0.600000  0.250000
Mo2917  Mo  0.725000  0.625000  0.275000
Ta2875  Ta  0.750000  0.600000  0.250000
W2860  W  0.775000  0.625000  0.275000
Nb2911  Nb  0.800000  0.600000  0.250000
W2861  W  0.825000  0.625000  0.275000
W2862  W  0.850000  0.600000  0.250000
Nb2912  Nb  0.875000  0.625000  0.275000
W2863  W  0.900000  0.600000  0.250000
Mo2918  Mo  0.925000  0.625000  0.275000
W2864  W  0.950000  0.600000  0.250000
Ta2876  Ta  0.975000  0.625000  0.275000
Nb2913  Nb  0.500000  0.650000  0.250000
Mo2919  Mo  0.550000  0.650000  0.250000
W2865  W  0.600000  0.650000  0.250000
Nb2914  Nb  0.650000  0.650000  0.250000
Nb2915  Nb  0.700000  0.650000  0.250000
Nb2916  Nb  0.750000  0.650000  0.250000
W2866  W  0.800000  0.650000  0.250000
W2867  W  0.850000  0.650000  0.250000
Ta2877  Ta  0.900000  0.650000  0.250000
Ta2878  Ta  0.950000  0.650000  0.250000
Nb2917  Nb  0.500000  0.350000  0.300000
Nb2918  Nb  0.525000  0.375000  0.325000
W2868  W  0.550000  0.350000  0.300000
Mo2920  Mo  0.575000  0.375000  0.325000
Ta2879  Ta  0.600000  0.350000  0.300000
Mo2921  Mo  0.625000  0.375000  0.325000
W2869  W  0.650000  0.350000  0.300000
Ta2880  Ta  0.675000  0.375000  0.325000
Ta2881  Ta  0.700000  0.350000  0.300000
Mo2922  Mo  0.725000  0.375000  0.325000
Ta2882  Ta  0.750000  0.350000  0.300000
Nb2919  Nb  0.775000  0.375000  0.325000
W2870  W  0.800000  0.350000  0.300000
Ta2883  Ta  0.825000  0.375000  0.325000
W2871  W  0.850000  0.350000  0.300000
Nb2920  Nb  0.875000  0.375000  0.325000
Ta2884  Ta  0.900000  0.350000  0.300000
Ta2885  Ta  0.925000  0.375000  0.325000
Mo2923  Mo  0.950000  0.350000  0.300000
Ta2886  Ta  0.975000  0.375000  0.325000
Mo2924  Mo  0.500000  0.400000  0.300000
W2872  W  0.525000  0.425000  0.325000
W2873  W  0.550000  0.400000  0.300000
Ta2887  Ta  0.575000  0.425000  0.325000
Mo2925  Mo  0.600000  0.400000  0.300000
Nb2921  Nb  0.625000  0.425000  0.325000
Mo2926  Mo  0.650000  0.400000  0.300000
W2874  W  0.675000  0.425000  0.325000
Nb2922  Nb  0.700000  0.400000  0.300000
Mo2927  Mo  0.725000  0.425000  0.325000
Ta2888  Ta  0.750000  0.400000  0.300000
Mo2928  Mo  0.775000  0.425000  0.325000
Nb2923  Nb  0.800000  0.400000  0.300000
Ta2889  Ta  0.825000  0.425000  0.325000
Ta2890  Ta  0.850000  0.400000  0.300000
Nb2924  Nb  0.875000  0.425000  0.325000
Nb2925  Nb  0.900000  0.400000  0.300000
Ta2891  Ta  0.925000  0.425000  0.325000
Mo2929  Mo  0.950000  0.400000  0.300000
Ta2892  Ta  0.975000  0.425000  0.325000
Nb2926  Nb  0.500000  0.450000  0.300000
Nb2927  Nb  0.525000  0.475000  0.325000
W2875  W  0.550000  0.450000  0.300000
Ta2893  Ta  0.575000  0.475000  0.325000
W2876  W  0.600000  0.450000  0.300000
Nb2928  Nb  0.625000  0.475000  0.325000
Mo2930  Mo  0.650000  0.450000  0.300000
W2877  W  0.675000  0.475000  0.325000
Nb2929  Nb  0.700000  0.450000  0.300000
Nb2930  Nb  0.725000  0.475000  0.325000
W2878  W  0.750000  0.450000  0.300000
Ta2894  Ta  0.775000  0.475000  0.325000
Ta2895  Ta  0.800000  0.450000  0.300000
Mo2931  Mo  0.825000  0.475000  0.325000
W2879  W  0.850000  0.450000  0.300000
W2880  W  0.875000  0.475000  0.325000
W2881  W  0.900000  0.450000  0.300000
Nb2931  Nb  0.925000  0.475000  0.325000
Mo2932  Mo  0.950000  0.450000  0.300000
Mo2933  Mo  0.975000  0.475000  0.325000
W2882  W  0.500000  0.500000  0.300000
Ta2896  Ta  0.525000  0.525000  0.325000
Ta2897  Ta  0.550000  0.500000  0.300000
Nb2932  Nb  0.575000  0.525000  0.325000
W2883  W  0.600000  0.500000  0.300000
Ta2898  Ta  0.625000  0.525000  0.325000
Ta2899  Ta  0.650000  0.500000  0.300000
Ta2900  Ta  0.675000  0.525000  0.325000
Mo2934  Mo  0.700000  0.500000  0.300000
Nb2933  Nb  0.725000  0.525000  0.325000
Mo2935  Mo  0.750000  0.500000  0.300000
Mo2936  Mo  0.775000  0.525000  0.325000
Mo2937  Mo  0.800000  0.500000  0.300000
Mo2938  Mo  0.825000  0.525000  0.325000
Nb2934  Nb  0.850000  0.500000  0.300000
W2884  W  0.875000  0.525000  0.325000
Ta2901  Ta  0.900000  0.500000  0.300000
Ta2902  Ta  0.925000  0.525000  0.325000
W2885  W  0.950000  0.500000  0.300000
Nb2935  Nb  0.975000  0.525000  0.325000
Mo2939  Mo  0.500000  0.550000  0.300000
Nb2936  Nb  0.525000  0.575000  0.325000
W2886  W  0.550000  0.550000  0.300000
Mo2940  Mo  0.575000  0.575000  0.325000
W2887  W  0.600000  0.550000  0.300000
Nb2937  Nb  0.625000  0.575000  0.325000
Mo2941  Mo  0.650000  0.550000  0.300000
Nb2938  Nb  0.675000  0.575000  0.325000
Nb2939  Nb  0.700000  0.550000  0.300000
Ta2903  Ta  0.725000  0.575000  0.325000
W2888  W  0.750000  0.550000  0.300000
Ta2904  Ta  0.775000  0.575000  0.325000
Nb2940  Nb  0.800000  0.550000  0.300000
W2889  W  0.825000  0.575000  0.325000
Ta2905  Ta  0.850000  0.550000  0.300000
Nb2941  Nb  0.875000  0.575000  0.325000
Mo2942  Mo  0.900000  0.550000  0.300000
Ta2906  Ta  0.925000  0.575000  0.325000
Nb2942  Nb  0.950000  0.550000  0.300000
Ta2907  Ta  0.975000  0.575000  0.325000
Ta2908  Ta  0.500000  0.600000  0.300000
Nb2943  Nb  0.525000  0.625000  0.325000
W2890  W  0.550000  0.600000  0.300000
W2891  W  0.575000  0.625000  0.325000
Ta2909  Ta  0.600000  0.600000  0.300000
Ta2910  Ta  0.625000  0.625000  0.325000
Ta2911  Ta  0.650000  0.600000  0.300000
Nb2944  Nb  0.675000  0.625000  0.325000
Nb2945  Nb  0.700000  0.600000  0.300000
Ta2912  Ta  0.725000  0.625000  0.325000
W2892  W  0.750000  0.600000  0.300000
Ta2913  Ta  0.775000  0.625000  0.325000
Mo2943  Mo  0.800000  0.600000  0.300000
Nb2946  Nb  0.825000  0.625000  0.325000
Mo2944  Mo  0.850000  0.600000  0.300000
W2893  W  0.875000  0.625000  0.325000
W2894  W  0.900000  0.600000  0.300000
Nb2947  Nb  0.925000  0.625000  0.325000
Nb2948  Nb  0.950000  0.600000  0.300000
Ta2914  Ta  0.975000  0.625000  0.325000
Mo2945  Mo  0.500000  0.650000  0.300000
Mo2946  Mo  0.550000  0.650000  0.300000
Ta2915  Ta  0.600000  0.650000  0.300000
Mo2947  Mo  0.650000  0.650000  0.300000
Nb2949  Nb  0.700000  0.650000  0.300000
W2895  W  0.750000  0.650000  0.300000
W2896  W  0.800000  0.650000  0.300000
Mo2948  Mo  0.850000  0.650000  0.300000
Mo2949  Mo  0.900000  0.650000  0.300000
Nb2950  Nb  0.950000  0.650000  0.300000
Nb2951  Nb  0.500000  0.350000  0.350000
Nb2952  Nb  0.525000  0.375000  0.375000
Ta2916  Ta  0.550000  0.350000  0.350000
Mo2950  Mo  0.575000  0.375000  0.375000
Mo2951  Mo  0.600000  0.350000  0.350000
Ta2917  Ta  0.625000  0.375000  0.375000
Nb2953  Nb  0.650000  0.350000  0.350000
Ta2918  Ta  0.675000  0.375000  0.375000
W2897  W  0.700000  0.350000  0.350000
W2898  W  0.725000  0.375000  0.375000
Mo2952  Mo  0.750000  0.350000  0.350000
Ta2919  Ta  0.775000  0.375000  0.375000
W2899  W  0.800000  0.350000  0.350000
Nb2954  Nb  0.825000  0.375000  0.375000
W2900  W  0.850000  0.350000  0.350000
Nb2955  Nb  0.875000  0.375000  0.375000
Mo2953  Mo  0.900000  0.350000  0.350000
Ta2920  Ta  0.925000  0.375000  0.375000
Mo2954  Mo  0.950000  0.350000  0.350000
W2901  W  0.975000  0.375000  0.375000
Mo2955  Mo  0.500000  0.400000  0.350000
Nb2956  Nb  0.525000  0.425000  0.375000
Mo2956  Mo  0.550000  0.400000  0.350000
W2902  W  0.575000  0.425000  0.375000
Mo2957  Mo  0.600000  0.400000  0.350000
W2903  W  0.625000  0.425000  0.375000
Mo2958  Mo  0.650000  0.400000  0.350000
Nb2957  Nb  0.675000  0.425000  0.375000
Mo2959  Mo  0.700000  0.400000  0.350000
Mo2960  Mo  0.725000  0.425000  0.375000
W2904  W  0.750000  0.400000  0.350000
Mo2961  Mo  0.775000  0.425000  0.375000
Ta2921  Ta  0.800000  0.400000  0.350000
W2905  W  0.825000  0.425000  0.375000
Nb2958  Nb  0.850000  0.400000  0.350000
Ta2922  Ta  0.875000  0.425000  0.375000
Nb2959  Nb  0.900000  0.400000  0.350000
W2906  W  0.925000  0.425000  0.375000
W2907  W  0.950000  0.400000  0.350000
Nb2960  Nb  0.975000  0.425000  0.375000
Mo2962  Mo  0.500000  0.450000  0.350000
W2908  W  0.525000  0.475000  0.375000
Mo2963  Mo  0.550000  0.450000  0.350000
W2909  W  0.575000  0.475000  0.375000
Nb2961  Nb  0.600000  0.450000  0.350000
Ta2923  Ta  0.625000  0.475000  0.375000
Nb2962  Nb  0.650000  0.450000  0.350000
Ta2924  Ta  0.675000  0.475000  0.375000
Ta2925  Ta  0.700000  0.450000  0.350000
W2910  W  0.725000  0.475000  0.375000
Ta2926  Ta  0.750000  0.450000  0.350000
Nb2963  Nb  0.775000  0.475000  0.375000
Ta2927  Ta  0.800000  0.450000  0.350000
Mo2964  Mo  0.825000  0.475000  0.375000
W2911  W  0.850000  0.450000  0.350000
Mo2965  Mo  0.875000  0.475000  0.375000
W2912  W  0.900000  0.450000  0.350000
Mo2966  Mo  0.925000  0.475000  0.375000
Nb2964  Nb  0.950000  0.450000  0.350000
Mo2967  Mo  0.975000  0.475000  0.375000
Ta2928  Ta  0.500000  0.500000  0.350000
Mo2968  Mo  0.525000  0.525000  0.375000
Mo2969  Mo  0.550000  0.500000  0.350000
Ta2929  Ta  0.575000  0.525000  0.375000
Nb2965  Nb  0.600000  0.500000  0.350000
Ta2930  Ta  0.625000  0.525000  0.375000
Nb2966  Nb  0.650000  0.500000  0.350000
Ta2931  Ta  0.675000  0.525000  0.375000
Mo2970  Mo  0.700000  0.500000  0.350000
Mo2971  Mo  0.725000  0.525000  0.375000
W2913  W  0.750000  0.500000  0.350000
Nb2967  Nb  0.775000  0.525000  0.375000
Mo2972  Mo  0.800000  0.500000  0.350000
Mo2973  Mo  0.825000  0.525000  0.375000
Mo2974  Mo  0.850000  0.500000  0.350000
Nb2968  Nb  0.875000  0.525000  0.375000
W2914  W  0.900000  0.500000  0.350000
Mo2975  Mo  0.925000  0.525000  0.375000
W2915  W  0.950000  0.500000  0.350000
Mo2976  Mo  0.975000  0.525000  0.375000
Nb2969  Nb  0.500000  0.550000  0.350000
W2916  W  0.525000  0.575000  0.375000
Mo2977  Mo  0.550000  0.550000  0.350000
Nb2970  Nb  0.575000  0.575000  0.375000
Nb2971  Nb  0.600000  0.550000  0.350000
Mo2978  Mo  0.625000  0.575000  0.375000
Nb2972  Nb  0.650000  0.550000  0.350000
Mo2979  Mo  0.675000  0.575000  0.375000
W2917  W  0.700000  0.550000  0.350000
Mo2980  Mo  0.725000  0.575000  0.375000
Mo2981  Mo  0.750000  0.550000  0.350000
W2918  W  0.775000  0.575000  0.375000
Nb2973  Nb  0.800000  0.550000  0.350000
Nb2974  Nb  0.825000  0.575000  0.375000
Nb2975  Nb  0.850000  0.550000  0.350000
Nb2976  Nb  0.875000  0.575000  0.375000
W2919  W  0.900000  0.550000  0.350000
Ta2932  Ta  0.925000  0.575000  0.375000
W2920  W  0.950000  0.550000  0.350000
Nb2977  Nb  0.975000  0.575000  0.375000
Ta2933  Ta  0.500000  0.600000  0.350000
W2921  W  0.525000  0.625000  0.375000
Mo2982  Mo  0.550000  0.600000  0.350000
W2922  W  0.575000  0.625000  0.375000
W2923  W  0.600000  0.600000  0.350000
Nb2978  Nb  0.625000  0.625000  0.375000
Ta2934  Ta  0.650000  0.600000  0.350000
W2924  W  0.675000  0.625000  0.375000
Mo2983  Mo  0.700000  0.600000  0.350000
Ta2935  Ta  0.725000  0.625000  0.375000
Mo2984  Mo  0.750000  0.600000  0.350000
Mo2985  Mo  0.775000  0.625000  0.375000
W2925  W  0.800000  0.600000  0.350000
Mo2986  Mo  0.825000  0.625000  0.375000
Mo2987  Mo  0.850000  0.600000  0.350000
Mo2988  Mo  0.875000  0.625000  0.375000
W2926  W  0.900000  0.600000  0.350000
Nb2979  Nb  0.925000  0.625000  0.375000
Nb2980  Nb  0.950000  0.600000  0.350000
Ta2936  Ta  0.975000  0.625000  0.375000
Mo2989  Mo  0.500000  0.650000  0.350000
W2927  W  0.550000  0.650000  0.350000
W2928  W  0.600000  0.650000  0.350000
W2929  W  0.650000  0.650000  0.350000
Nb2981  Nb  0.700000  0.650000  0.350000
W2930  W  0.750000  0.650000  0.350000
Nb2982  Nb  0.800000  0.650000  0.350000
Mo2990  Mo  0.850000  0.650000  0.350000
W2931  W  0.900000  0.650000  0.350000
Ta2937  Ta  0.950000  0.650000  0.350000
Mo2991  Mo  0.500000  0.350000  0.400000
Ta2938  Ta  0.525000  0.375000  0.425000
Ta2939  Ta  0.550000  0.350000  0.400000
Mo2992  Mo  0.575000  0.375000  0.425000
W2932  W  0.600000  0.350000  0.400000
Mo2993  Mo  0.625000  0.375000  0.425000
Ta2940  Ta  0.650000  0.350000  0.400000
W2933  W  0.675000  0.375000  0.425000
Mo2994  Mo  0.700000  0.350000  0.400000
W2934  W  0.725000  0.375000  0.425000
W2935  W  0.750000  0.350000  0.400000
Nb2983  Nb  0.775000  0.375000  0.425000
Ta2941  Ta  0.800000  0.350000  0.400000
Ta2942  Ta  0.825000  0.375000  0.425000
Ta2943  Ta  0.850000  0.350000  0.400000
Nb2984  Nb  0.875000  0.375000  0.425000
W2936  W  0.900000  0.350000  0.400000
Nb2985  Nb  0.925000  0.375000  0.425000
Nb2986  Nb  0.950000  0.350000  0.400000
Mo2995  Mo  0.975000  0.375000  0.425000
Ta2944  Ta  0.500000  0.400000  0.400000
W2937  W  0.525000  0.425000  0.425000
Nb2987  Nb  0.550000  0.400000  0.400000
Mo2996  Mo  0.575000  0.425000  0.425000
Mo2997  Mo  0.600000  0.400000  0.400000
Nb2988  Nb  0.625000  0.425000  0.425000
Nb2989  Nb  0.650000  0.400000  0.400000
Mo2998  Mo  0.675000  0.425000  0.425000
Ta2945  Ta  0.700000  0.400000  0.400000
Nb2990  Nb  0.725000  0.425000  0.425000
W2938  W  0.750000  0.400000  0.400000
Ta2946  Ta  0.775000  0.425000  0.425000
Ta2947  Ta  0.800000  0.400000  0.400000
Mo2999  Mo  0.825000  0.425000  0.425000
Ta2948  Ta  0.850000  0.400000  0.400000
Mo3000  Mo  0.875000  0.425000  0.425000
W2939  W  0.900000  0.400000  0.400000
Mo3001  Mo  0.925000  0.425000  0.425000
Ta2949  Ta  0.950000  0.400000  0.400000
Nb2991  Nb  0.975000  0.425000  0.425000
Ta2950  Ta  0.500000  0.450000  0.400000
Nb2992  Nb  0.525000  0.475000  0.425000
Nb2993  Nb  0.550000  0.450000  0.400000
Mo3002  Mo  0.575000  0.475000  0.425000
Ta2951  Ta  0.600000  0.450000  0.400000
W2940  W  0.625000  0.475000  0.425000
Nb2994  Nb  0.650000  0.450000  0.400000
Ta2952  Ta  0.675000  0.475000  0.425000
Mo3003  Mo  0.700000  0.450000  0.400000
Mo3004  Mo  0.725000  0.475000  0.425000
Nb2995  Nb  0.750000  0.450000  0.400000
Mo3005  Mo  0.775000  0.475000  0.425000
Ta2953  Ta  0.800000  0.450000  0.400000
Mo3006  Mo  0.825000  0.475000  0.425000
Ta2954  Ta  0.850000  0.450000  0.400000
Ta2955  Ta  0.875000  0.475000  0.425000
Nb2996  Nb  0.900000  0.450000  0.400000
Mo3007  Mo  0.925000  0.475000  0.425000
Ta2956  Ta  0.950000  0.450000  0.400000
Nb2997  Nb  0.975000  0.475000  0.425000
Nb2998  Nb  0.500000  0.500000  0.400000
Nb2999  Nb  0.525000  0.525000  0.425000
Ta2957  Ta  0.550000  0.500000  0.400000
Nb3000  Nb  0.575000  0.525000  0.425000
W2941  W  0.600000  0.500000  0.400000
W2942  W  0.625000  0.525000  0.425000
Nb3001  Nb  0.650000  0.500000  0.400000
Ta2958  Ta  0.675000  0.525000  0.425000
Nb3002  Nb  0.700000  0.500000  0.400000
Mo3008  Mo  0.725000  0.525000  0.425000
Nb3003  Nb  0.750000  0.500000  0.400000
Mo3009  Mo  0.775000  0.525000  0.425000
Ta2959  Ta  0.800000  0.500000  0.400000
Nb3004  Nb  0.825000  0.525000  0.425000
Mo3010  Mo  0.850000  0.500000  0.400000
Nb3005  Nb  0.875000  0.525000  0.425000
Nb3006  Nb  0.900000  0.500000  0.400000
Nb3007  Nb  0.925000  0.525000  0.425000
Nb3008  Nb  0.950000  0.500000  0.400000
Ta2960  Ta  0.975000  0.525000  0.425000
Mo3011  Mo  0.500000  0.550000  0.400000
Ta2961  Ta  0.525000  0.575000  0.425000
Nb3009  Nb  0.550000  0.550000  0.400000
Mo3012  Mo  0.575000  0.575000  0.425000
Mo3013  Mo  0.600000  0.550000  0.400000
Nb3010  Nb  0.625000  0.575000  0.425000
Nb3011  Nb  0.650000  0.550000  0.400000
W2943  W  0.675000  0.575000  0.425000
Nb3012  Nb  0.700000  0.550000  0.400000
Mo3014  Mo  0.725000  0.575000  0.425000
W2944  W  0.750000  0.550000  0.400000
Nb3013  Nb  0.775000  0.575000  0.425000
Mo3015  Mo  0.800000  0.550000  0.400000
W2945  W  0.825000  0.575000  0.425000
W2946  W  0.850000  0.550000  0.400000
Nb3014  Nb  0.875000  0.575000  0.425000
Ta2962  Ta  0.900000  0.550000  0.400000
W2947  W  0.925000  0.575000  0.425000
Mo3016  Mo  0.950000  0.550000  0.400000
Nb3015  Nb  0.975000  0.575000  0.425000
Mo3017  Mo  0.500000  0.600000  0.400000
Ta2963  Ta  0.525000  0.625000  0.425000
Nb3016  Nb  0.550000  0.600000  0.400000
Ta2964  Ta  0.575000  0.625000  0.425000
Mo3018  Mo  0.600000  0.600000  0.400000
W2948  W  0.625000  0.625000  0.425000
W2949  W  0.650000  0.600000  0.400000
Ta2965  Ta  0.675000  0.625000  0.425000
Mo3019  Mo  0.700000  0.600000  0.400000
Ta2966  Ta  0.725000  0.625000  0.425000
W2950  W  0.750000  0.600000  0.400000
Nb3017  Nb  0.775000  0.625000  0.425000
Mo3020  Mo  0.800000  0.600000  0.400000
Nb3018  Nb  0.825000  0.625000  0.425000
Nb3019  Nb  0.850000  0.600000  0.400000
Ta2967  Ta  0.875000  0.625000  0.425000
W2951  W  0.900000  0.600000  0.400000
Ta2968  Ta  0.925000  0.625000  0.425000
W2952  W  0.950000  0.600000  0.400000
W2953  W  0.975000  0.625000  0.425000
Nb3020  Nb  0.500000  0.650000  0.400000
Ta2969  Ta  0.550000  0.650000  0.400000
W2954  W  0.600000  0.650000  0.400000
Nb3021  Nb  0.650000  0.650000  0.400000
Ta2970  Ta  0.700000  0.650000  0.400000
Ta2971  Ta  0.750000  0.650000  0.400000
Ta2972  Ta  0.800000  0.650000  0.400000
Ta2973  Ta  0.850000  0.650000  0.400000
Mo3021  Mo  0.900000  0.650000  0.400000
Mo3022  Mo  0.950000  0.650000  0.400000
Nb3022  Nb  0.500000  0.350000  0.450000
Mo3023  Mo  0.525000  0.375000  0.475000
Nb3023  Nb  0.550000  0.350000  0.450000
Nb3024  Nb  0.575000  0.375000  0.475000
Nb3025  Nb  0.600000  0.350000  0.450000
Ta2974  Ta  0.625000  0.375000  0.475000
Ta2975  Ta  0.650000  0.350000  0.450000
Nb3026  Nb  0.675000  0.375000  0.475000
Mo3024  Mo  0.700000  0.350000  0.450000
Nb3027  Nb  0.725000  0.375000  0.475000
Nb3028  Nb  0.750000  0.350000  0.450000
Ta2976  Ta  0.775000  0.375000  0.475000
W2955  W  0.800000  0.350000  0.450000
Ta2977  Ta  0.825000  0.375000  0.475000
Ta2978  Ta  0.850000  0.350000  0.450000
W2956  W  0.875000  0.375000  0.475000
Mo3025  Mo  0.900000  0.350000  0.450000
Mo3026  Mo  0.925000  0.375000  0.475000
Mo3027  Mo  0.950000  0.350000  0.450000
W2957  W  0.975000  0.375000  0.475000
Nb3029  Nb  0.500000  0.400000  0.450000
Ta2979  Ta  0.525000  0.425000  0.475000
Nb3030  Nb  0.550000  0.400000  0.450000
W2958  W  0.575000  0.425000  0.475000
Ta2980  Ta  0.600000  0.400000  0.450000
W2959  W  0.625000  0.425000  0.475000
Mo3028  Mo  0.650000  0.400000  0.450000
Nb3031  Nb  0.675000  0.425000  0.475000
W2960  W  0.700000  0.400000  0.450000
Ta2981  Ta  0.725000  0.425000  0.475000
Nb3032  Nb  0.750000  0.400000  0.450000
Ta2982  Ta  0.775000  0.425000  0.475000
Mo3029  Mo  0.800000  0.400000  0.450000
W2961  W  0.825000  0.425000  0.475000
Mo3030  Mo  0.850000  0.400000  0.450000
W2962  W  0.875000  0.425000  0.475000
Ta2983  Ta  0.900000  0.400000  0.450000
Mo3031  Mo  0.925000  0.425000  0.475000
W2963  W  0.950000  0.400000  0.450000
W2964  W  0.975000  0.425000  0.475000
W2965  W  0.500000  0.450000  0.450000
Mo3032  Mo  0.525000  0.475000  0.475000
W2966  W  0.550000  0.450000  0.450000
Ta2984  Ta  0.575000  0.475000  0.475000
W2967  W  0.600000  0.450000  0.450000
W2968  W  0.625000  0.475000  0.475000
W2969  W  0.650000  0.450000  0.450000
W2970  W  0.675000  0.475000  0.475000
Nb3033  Nb  0.700000  0.450000  0.450000
Ta2985  Ta  0.725000  0.475000  0.475000
Mo3033  Mo  0.750000  0.450000  0.450000
Ta2986  Ta  0.775000  0.475000  0.475000
W2971  W  0.800000  0.450000  0.450000
W2972  W  0.825000  0.475000  0.475000
W2973  W  0.850000  0.450000  0.450000
W2974  W  0.875000  0.475000  0.475000
Ta2987  Ta  0.900000  0.450000  0.450000
Ta2988  Ta  0.925000  0.475000  0.475000
Mo3034  Mo  0.950000  0.450000  0.450000
W2975  W  0.975000  0.475000  0.475000
Ta2989  Ta  0.500000  0.500000  0.450000
Mo3035  Mo  0.525000  0.525000  0.475000
Nb3034  Nb  0.550000  0.500000  0.450000
Ta2990  Ta  0.575000  0.525000  0.475000
Ta2991  Ta  0.600000  0.500000  0.450000
Mo3036  Mo  0.625000  0.525000  0.475000
Mo3037  Mo  0.650000  0.500000  0.450000
Ta2992  Ta  0.675000  0.525000  0.475000
Ta2993  Ta  0.700000  0.500000  0.450000
Nb3035  Nb  0.725000  0.525000  0.475000
Ta2994  Ta  0.750000  0.500000  0.450000
Nb3036  Nb  0.775000  0.525000  0.475000
W2976  W  0.800000  0.500000  0.450000
W2977  W  0.825000  0.525000  0.475000
Nb3037  Nb  0.850000  0.500000  0.450000
Nb3038  Nb  0.875000  0.525000  0.475000
Ta2995  Ta  0.900000  0.500000  0.450000
Ta2996  Ta  0.925000  0.525000  0.475000
Mo3038  Mo  0.950000  0.500000  0.450000
W2978  W  0.975000  0.525000  0.475000
W2979  W  0.500000  0.550000  0.450000
W2980  W  0.525000  0.575000  0.475000
W2981  W  0.550000  0.550000  0.450000
Mo3039  Mo  0.575000  0.575000  0.475000
Nb3039  Nb  0.600000  0.550000  0.450000
Ta2997  Ta  0.625000  0.575000  0.475000
Mo3040  Mo  0.650000  0.550000  0.450000
Ta2998  Ta  0.675000  0.575000  0.475000
Ta2999  Ta  0.700000  0.550000  0.450000
Ta3000  Ta  0.725000  0.575000  0.475000
Mo3041  Mo  0.750000  0.550000  0.450000
Mo3042  Mo  0.775000  0.575000  0.475000
Nb3040  Nb  0.800000  0.550000  0.450000
Nb3041  Nb  0.825000  0.575000  0.475000
Nb3042  Nb  0.850000  0.550000  0.450000
Nb3043  Nb  0.875000  0.575000  0.475000
Nb3044  Nb  0.900000  0.550000  0.450000
Ta3001  Ta  0.925000  0.575000  0.475000
Mo3043  Mo  0.950000  0.550000  0.450000
Nb3045  Nb  0.975000  0.575000  0.475000
Nb3046  Nb  0.500000  0.600000  0.450000
Nb3047  Nb  0.525000  0.625000  0.475000
Ta3002  Ta  0.550000  0.600000  0.450000
W2982  W  0.575000  0.625000  0.475000
Ta3003  Ta  0.600000  0.600000  0.450000
Ta3004  Ta  0.625000  0.625000  0.475000
Mo3044  Mo  0.650000  0.600000  0.450000
Mo3045  Mo  0.675000  0.625000  0.475000
Ta3005  Ta  0.700000  0.600000  0.450000
Ta3006  Ta  0.725000  0.625000  0.475000
Nb3048  Nb  0.750000  0.600000  0.450000
Mo3046  Mo  0.775000  0.625000  0.475000
W2983  W  0.800000  0.600000  0.450000
W2984  W  0.825000  0.625000  0.475000
W2985  W  0.850000  0.600000  0.450000
Ta3007  Ta  0.875000  0.625000  0.475000
W2986  W  0.900000  0.600000  0.450000
Nb3049  Nb  0.925000  0.625000  0.475000
W2987  W  0.950000  0.600000  0.450000
Mo3047  Mo  0.975000  0.625000  0.475000
W2988  W  0.500000  0.650000  0.450000
Ta3008  Ta  0.550000  0.650000  0.450000
Mo3048  Mo  0.600000  0.650000  0.450000
Ta3009  Ta  0.650000  0.650000  0.450000
W2989  W  0.700000  0.650000  0.450000
Nb3050  Nb  0.750000  0.650000  0.450000
Nb3051  Nb  0.800000  0.650000  0.450000
W2990  W  0.850000  0.650000  0.450000
Nb3052  Nb  0.900000  0.650000  0.450000
Nb3053  Nb  0.950000  0.650000  0.450000
Mo3049  Mo  0.500000  0.350000  0.500000
W2991  W  0.525000  0.375000  0.525000
Ta3010  Ta  0.550000  0.350000  0.500000
Mo3050  Mo  0.575000  0.375000  0.525000
Ta3011  Ta  0.600000  0.350000  0.500000
W2992  W  0.625000  0.375000  0.525000
Mo3051  Mo  0.650000  0.350000  0.500000
W2993  W  0.675000  0.375000  0.525000
Nb3054  Nb  0.700000  0.350000  0.500000
Ta3012  Ta  0.725000  0.375000  0.525000
Nb3055  Nb  0.750000  0.350000  0.500000
Ta3013  Ta  0.775000  0.375000  0.525000
Ta3014  Ta  0.800000  0.350000  0.500000
Ta3015  Ta  0.825000  0.375000  0.525000
Nb3056  Nb  0.850000  0.350000  0.500000
Nb3057  Nb  0.875000  0.375000  0.525000
Nb3058  Nb  0.900000  0.350000  0.500000
Nb3059  Nb  0.925000  0.375000  0.525000
Nb3060  Nb  0.950000  0.350000  0.500000
W2994  W  0.975000  0.375000  0.525000
Nb3061  Nb  0.500000  0.400000  0.500000
W2995  W  0.525000  0.425000  0.525000
Mo3052  Mo  0.550000  0.400000  0.500000
Nb3062  Nb  0.575000  0.425000  0.525000
Mo3053  Mo  0.600000  0.400000  0.500000
Nb3063  Nb  0.625000  0.425000  0.525000
Nb3064  Nb  0.650000  0.400000  0.500000
Nb3065  Nb  0.675000  0.425000  0.525000
Nb3066  Nb  0.700000  0.400000  0.500000
Ta3016  Ta  0.725000  0.425000  0.525000
Nb3067  Nb  0.750000  0.400000  0.500000
Mo3054  Mo  0.775000  0.425000  0.525000
Mo3055  Mo  0.800000  0.400000  0.500000
Mo3056  Mo  0.825000  0.425000  0.525000
Ta3017  Ta  0.850000  0.400000  0.500000
Ta3018  Ta  0.875000  0.425000  0.525000
Nb3068  Nb  0.900000  0.400000  0.500000
Mo3057  Mo  0.925000  0.425000  0.525000
Mo3058  Mo  0.950000  0.400000  0.500000
Mo3059  Mo  0.975000  0.425000  0.525000
Ta3019  Ta  0.500000  0.450000  0.500000
Nb3069  Nb  0.525000  0.475000  0.525000
Mo3060  Mo  0.550000  0.450000  0.500000
Mo3061  Mo  0.575000  0.475000  0.525000
Mo3062  Mo  0.600000  0.450000  0.500000
Nb3070  Nb  0.625000  0.475000  0.525000
Nb3071  Nb  0.650000  0.450000  0.500000
W2996  W  0.675000  0.475000  0.525000
Mo3063  Mo  0.700000  0.450000  0.500000
Nb3072  Nb  0.725000  0.475000  0.525000
W2997  W  0.750000  0.450000  0.500000
Nb3073  Nb  0.775000  0.475000  0.525000
Nb3074  Nb  0.800000  0.450000  0.500000
Ta3020  Ta  0.825000  0.475000  0.525000
W2998  W  0.850000  0.450000  0.500000
Ta3021  Ta  0.875000  0.475000  0.525000
Mo3064  Mo  0.900000  0.450000  0.500000
Ta3022  Ta  0.925000  0.475000  0.525000
Nb3075  Nb  0.950000  0.450000  0.500000
W2999  W  0.975000  0.475000  0.525000
Nb3076  Nb  0.500000  0.500000  0.500000
Mo3065  Mo  0.525000  0.525000  0.525000
Mo3066  Mo  0.550000  0.500000  0.500000
Mo3067  Mo  0.575000  0.525000  0.525000
Mo3068  Mo  0.600000  0.500000  0.500000
Mo3069  Mo  0.625000  0.525000  0.525000
Mo3070  Mo  0.650000  0.500000  0.500000
W3000  W  0.675000  0.525000  0.525000
W3001  W  0.700000  0.500000  0.500000
W3002  W  0.725000  0.525000  0.525000
Nb3077  Nb  0.750000  0.500000  0.500000
Mo3071  Mo  0.775000  0.525000  0.525000
Ta3023  Ta  0.800000  0.500000  0.500000
Mo3072  Mo  0.825000  0.525000  0.525000
Mo3073  Mo  0.850000  0.500000  0.500000
W3003  W  0.875000  0.525000  0.525000
Ta3024  Ta  0.900000  0.500000  0.500000
W3004  W  0.925000  0.525000  0.525000
Ta3025  Ta  0.950000  0.500000  0.500000
Nb3078  Nb  0.975000  0.525000  0.525000
W3005  W  0.500000  0.550000  0.500000
Mo3074  Mo  0.525000  0.575000  0.525000
Nb3079  Nb  0.550000  0.550000  0.500000
Ta3026  Ta  0.575000  0.575000  0.525000
Mo3075  Mo  0.600000  0.550000  0.500000
Ta3027  Ta  0.625000  0.575000  0.525000
Ta3028  Ta  0.650000  0.550000  0.500000
W3006  W  0.675000  0.575000  0.525000
Nb3080  Nb  0.700000  0.550000  0.500000
Nb3081  Nb  0.725000  0.575000  0.525000
W3007  W  0.750000  0.550000  0.500000
W3008  W  0.775000  0.575000  0.525000
Mo3076  Mo  0.800000  0.550000  0.500000
Ta3029  Ta  0.825000  0.575000  0.525000
Ta3030  Ta  0.850000  0.550000  0.500000
Mo3077  Mo  0.875000  0.575000  0.525000
Nb3082  Nb  0.900000  0.550000  0.500000
W3009  W  0.925000  0.575000  0.525000
W3010  W  0.950000  0.550000  0.500000
Ta3031  Ta  0.975000  0.575000  0.525000
Nb3083  Nb  0.500000  0.600000  0.500000
Mo3078  Mo  0.525000  0.625000  0.525000
Nb3084  Nb  0.550000  0.600000  0.500000
Nb3085  Nb  0.575000  0.625000  0.525000
W3011  W  0.600000  0.600000  0.500000
Ta3032  Ta  0.625000  0.625000  0.525000
Nb3086  Nb  0.650000  0.600000  0.500000
Mo3079  Mo  0.675000  0.625000  0.525000
Mo3080  Mo  0.700000  0.600000  0.500000
Mo3081  Mo  0.725000  0.625000  0.525000
Ta3033  Ta  0.750000  0.600000  0.500000
W3012  W  0.775000  0.625000  0.525000
Mo3082  Mo  0.800000  0.600000  0.500000
W3013  W  0.825000  0.625000  0.525000
Nb3087  Nb  0.850000  0.600000  0.500000
Mo3083  Mo  0.875000  0.625000  0.525000
Nb3088  Nb  0.900000  0.600000  0.500000
Mo3084  Mo  0.925000  0.625000  0.525000
W3014  W  0.950000  0.600000  0.500000
Mo3085  Mo  0.975000  0.625000  0.525000
W3015  W  0.500000  0.650000  0.500000
Ta3034  Ta  0.550000  0.650000  0.500000
Nb3089  Nb  0.600000  0.650000  0.500000
W3016  W  0.650000  0.650000  0.500000
W3017  W  0.700000  0.650000  0.500000
Ta3035  Ta  0.750000  0.650000  0.500000
W3018  W  0.800000  0.650000  0.500000
Ta3036  Ta  0.850000  0.650000  0.500000
W3019  W  0.900000  0.650000  0.500000
Ta3037  Ta  0.950000  0.650000  0.500000
W3020  W  0.500000  0.350000  0.550000
W3021  W  0.525000  0.375000  0.575000
W3022  W  0.550000  0.350000  0.550000
W3023  W  0.575000  0.375000  0.575000
Ta3038  Ta  0.600000  0.350000  0.550000
Mo3086  Mo  0.625000  0.375000  0.575000
Ta3039  Ta  0.650000  0.350000  0.550000
Ta3040  Ta  0.675000  0.375000  0.575000
W3024  W  0.700000  0.350000  0.550000
Mo3087  Mo  0.725000  0.375000  0.575000
Ta3041  Ta  0.750000  0.350000  0.550000
W3025  W  0.775000  0.375000  0.575000
W3026  W  0.800000  0.350000  0.550000
W3027  W  0.825000  0.375000  0.575000
Mo3088  Mo  0.850000  0.350000  0.550000
W3028  W  0.875000  0.375000  0.575000
Mo3089  Mo  0.900000  0.350000  0.550000
Ta3042  Ta  0.925000  0.375000  0.575000
Ta3043  Ta  0.950000  0.350000  0.550000
Nb3090  Nb  0.975000  0.375000  0.575000
Mo3090  Mo  0.500000  0.400000  0.550000
W3029  W  0.525000  0.425000  0.575000
W3030  W  0.550000  0.400000  0.550000
Ta3044  Ta  0.575000  0.425000  0.575000
Nb3091  Nb  0.600000  0.400000  0.550000
Ta3045  Ta  0.625000  0.425000  0.575000
Mo3091  Mo  0.650000  0.400000  0.550000
Mo3092  Mo  0.675000  0.425000  0.575000
W3031  W  0.700000  0.400000  0.550000
Mo3093  Mo  0.725000  0.425000  0.575000
Ta3046  Ta  0.750000  0.400000  0.550000
Ta3047  Ta  0.775000  0.425000  0.575000
Nb3092  Nb  0.800000  0.400000  0.550000
Mo3094  Mo  0.825000  0.425000  0.575000
Ta3048  Ta  0.850000  0.400000  0.550000
W3032  W  0.875000  0.425000  0.575000
Mo3095  Mo  0.900000  0.400000  0.550000
Mo3096  Mo  0.925000  0.425000  0.575000
Nb3093  Nb  0.950000  0.400000  0.550000
W3033  W  0.975000  0.425000  0.575000
W3034  W  0.500000  0.450000  0.550000
W3035  W  0.525000  0.475000  0.575000
Nb3094  Nb  0.550000  0.450000  0.550000
Mo3097  Mo  0.575000  0.475000  0.575000
Ta3049  Ta  0.600000  0.450000  0.550000
Ta3050  Ta  0.625000  0.475000  0.575000
Mo3098  Mo  0.650000  0.450000  0.550000
Nb3095  Nb  0.675000  0.475000  0.575000
W3036  W  0.700000  0.450000  0.550000
Mo3099  Mo  0.725000  0.475000  0.575000
W3037  W  0.750000  0.450000  0.550000
Nb3096  Nb  0.775000  0.475000  0.575000
W3038  W  0.800000  0.450000  0.550000
Mo3100  Mo  0.825000  0.475000  0.575000
Ta3051  Ta  0.850000  0.450000  0.550000
Mo3101  Mo  0.875000  0.475000  0.575000
Nb3097  Nb  0.900000  0.450000  0.550000
Nb3098  Nb  0.925000  0.475000  0.575000
W3039  W  0.950000  0.450000  0.550000
Mo3102  Mo  0.975000  0.475000  0.575000
Mo3103  Mo  0.500000  0.500000  0.550000
Ta3052  Ta  0.525000  0.525000  0.575000
Nb3099  Nb  0.550000  0.500000  0.550000
Nb3100  Nb  0.575000  0.525000  0.575000
Ta3053  Ta  0.600000  0.500000  0.550000
Ta3054  Ta  0.625000  0.525000  0.575000
Ta3055  Ta  0.650000  0.500000  0.550000
Nb3101  Nb  0.675000  0.525000  0.575000
W3040  W  0.700000  0.500000  0.550000
Nb3102  Nb  0.725000  0.525000  0.575000
Mo3104  Mo  0.750000  0.500000  0.550000
Ta3056  Ta  0.775000  0.525000  0.575000
Nb3103  Nb  0.800000  0.500000  0.550000
Mo3105  Mo  0.825000  0.525000  0.575000
W3041  W  0.850000  0.500000  0.550000
W3042  W  0.875000  0.525000  0.575000
W3043  W  0.900000  0.500000  0.550000
Ta3057  Ta  0.925000  0.525000  0.575000
Ta3058  Ta  0.950000  0.500000  0.550000
Mo3106  Mo  0.975000  0.525000  0.575000
Nb3104  Nb  0.500000  0.550000  0.550000
Nb3105  Nb  0.525000  0.575000  0.575000
Ta3059  Ta  0.550000  0.550000  0.550000
Nb3106  Nb  0.575000  0.575000  0.575000
W3044  W  0.600000  0.550000  0.550000
W3045  W  0.625000  0.575000  0.575000
Nb3107  Nb  0.650000  0.550000  0.550000
Ta3060  Ta  0.675000  0.575000  0.575000
Nb3108  Nb  0.700000  0.550000  0.550000
Nb3109  Nb  0.725000  0.575000  0.575000
Nb3110  Nb  0.750000  0.550000  0.550000
Ta3061  Ta  0.775000  0.575000  0.575000
Ta3062  Ta  0.800000  0.550000  0.550000
W3046  W  0.825000  0.575000  0.575000
Mo3107  Mo  0.850000  0.550000  0.550000
W3047  W  0.875000  0.575000  0.575000
Mo3108  Mo  0.900000  0.550000  0.550000
W3048  W  0.925000  0.575000  0.575000
Nb3111  Nb  0.950000  0.550000  0.550000
W3049  W  0.975000  0.575000  0.575000
W3050  W  0.500000  0.600000  0.550000
Ta3063  Ta  0.525000  0.625000  0.575000
Ta3064  Ta  0.550000  0.600000  0.550000
Ta3065  Ta  0.575000  0.625000  0.575000
W3051  W  0.600000  0.600000  0.550000
Nb3112  Nb  0.625000  0.625000  0.575000
Ta3066  Ta  0.650000  0.600000  0.550000
Mo3109  Mo  0.675000  0.625000  0.575000
Nb3113  Nb  0.700000  0.600000  0.550000
Ta3067  Ta  0.725000  0.625000  0.575000
Mo3110  Mo  0.750000  0.600000  0.550000
Ta3068  Ta  0.775000  0.625000  0.575000
W3052  W  0.800000  0.600000  0.550000
Ta3069  Ta  0.825000  0.625000  0.575000
W3053  W  0.850000  0.600000  0.550000
Ta3070  Ta  0.875000  0.625000  0.575000
Nb3114  Nb  0.900000  0.600000  0.550000
Nb3115  Nb  0.925000  0.625000  0.575000
Ta3071  Ta  0.950000  0.600000  0.550000
Mo3111  Mo  0.975000  0.625000  0.575000
W3054  W  0.500000  0.650000  0.550000
Mo3112  Mo  0.550000  0.650000  0.550000
W3055  W  0.600000  0.650000  0.550000
Mo3113  Mo  0.650000  0.650000  0.550000
W3056  W  0.700000  0.650000  0.550000
W3057  W  0.750000  0.650000  0.550000
W3058  W  0.800000  0.650000  0.550000
Ta3072  Ta  0.850000  0.650000  0.550000
W3059  W  0.900000  0.650000  0.550000
Nb3116  Nb  0.950000  0.650000  0.550000
Mo3114  Mo  0.500000  0.350000  0.600000
W3060  W  0.525000  0.375000  0.625000
Ta3073  Ta  0.550000  0.350000  0.600000
Nb3117  Nb  0.575000  0.375000  0.625000
Mo3115  Mo  0.600000  0.350000  0.600000
Ta3074  Ta  0.625000  0.375000  0.625000
Mo3116  Mo  0.650000  0.350000  0.600000
Nb3118  Nb  0.675000  0.375000  0.625000
W3061  W  0.700000  0.350000  0.600000
Ta3075  Ta  0.725000  0.375000  0.625000
W3062  W  0.750000  0.350000  0.600000
Ta3076  Ta  0.775000  0.375000  0.625000
Mo3117  Mo  0.800000  0.350000  0.600000
Ta3077  Ta  0.825000  0.375000  0.625000
Ta3078  Ta  0.850000  0.350000  0.600000
Nb3119  Nb  0.875000  0.375000  0.625000
Ta3079  Ta  0.900000  0.350000  0.600000
W3063  W  0.925000  0.375000  0.625000
Nb3120  Nb  0.950000  0.350000  0.600000
Nb3121  Nb  0.975000  0.375000  0.625000
W3064  W  0.500000  0.400000  0.600000
Ta3080  Ta  0.525000  0.425000  0.625000
Ta3081  Ta  0.550000  0.400000  0.600000
Nb3122  Nb  0.575000  0.425000  0.625000
W3065  W  0.600000  0.400000  0.600000
W3066  W  0.625000  0.425000  0.625000
Ta3082  Ta  0.650000  0.400000  0.600000
Ta3083  Ta  0.675000  0.425000  0.625000
W3067  W  0.700000  0.400000  0.600000
W3068  W  0.725000  0.425000  0.625000
Mo3118  Mo  0.750000  0.400000  0.600000
Mo3119  Mo  0.775000  0.425000  0.625000
Mo3120  Mo  0.800000  0.400000  0.600000
W3069  W  0.825000  0.425000  0.625000
Ta3084  Ta  0.850000  0.400000  0.600000
W3070  W  0.875000  0.425000  0.625000
W3071  W  0.900000  0.400000  0.600000
Ta3085  Ta  0.925000  0.425000  0.625000
Ta3086  Ta  0.950000  0.400000  0.600000
Mo3121  Mo  0.975000  0.425000  0.625000
Mo3122  Mo  0.500000  0.450000  0.600000
Mo3123  Mo  0.525000  0.475000  0.625000
Ta3087  Ta  0.550000  0.450000  0.600000
W3072  W  0.575000  0.475000  0.625000
Nb3123  Nb  0.600000  0.450000  0.600000
Nb3124  Nb  0.625000  0.475000  0.625000
Mo3124  Mo  0.650000  0.450000  0.600000
W3073  W  0.675000  0.475000  0.625000
Nb3125  Nb  0.700000  0.450000  0.600000
W3074  W  0.725000  0.475000  0.625000
Mo3125  Mo  0.750000  0.450000  0.600000
Mo3126  Mo  0.775000  0.475000  0.625000
Mo3127  Mo  0.800000  0.450000  0.600000
W3075  W  0.825000  0.475000  0.625000
Mo3128  Mo  0.850000  0.450000  0.600000
Ta3088  Ta  0.875000  0.475000  0.625000
Ta3089  Ta  0.900000  0.450000  0.600000
W3076  W  0.925000  0.475000  0.625000
Ta3090  Ta  0.950000  0.450000  0.600000
Nb3126  Nb  0.975000  0.475000  0.625000
W3077  W  0.500000  0.500000  0.600000
Nb3127  Nb  0.525000  0.525000  0.625000
Nb3128  Nb  0.550000  0.500000  0.600000
W3078  W  0.575000  0.525000  0.625000
Ta3091  Ta  0.600000  0.500000  0.600000
Mo3129  Mo  0.625000  0.525000  0.625000
Ta3092  Ta  0.650000  0.500000  0.600000
Ta3093  Ta  0.675000  0.525000  0.625000
W3079  W  0.700000  0.500000  0.600000
Nb3129  Nb  0.725000  0.525000  0.625000
W3080  W  0.750000  0.500000  0.600000
Nb3130  Nb  0.775000  0.525000  0.625000
W3081  W  0.800000  0.500000  0.600000
Nb3131  Nb  0.825000  0.525000  0.625000
Mo3130  Mo  0.850000  0.500000  0.600000
Nb3132  Nb  0.875000  0.525000  0.625000
Ta3094  Ta  0.900000  0.500000  0.600000
Nb3133  Nb  0.925000  0.525000  0.625000
Ta3095  Ta  0.950000  0.500000  0.600000
Ta3096  Ta  0.975000  0.525000  0.625000
Ta3097  Ta  0.500000  0.550000  0.600000
Nb3134  Nb  0.525000  0.575000  0.625000
W3082  W  0.550000  0.550000  0.600000
Ta3098  Ta  0.575000  0.575000  0.625000
Mo3131  Mo  0.600000  0.550000  0.600000
Ta3099  Ta  0.625000  0.575000  0.625000
Ta3100  Ta  0.650000  0.550000  0.600000
Nb3135  Nb  0.675000  0.575000  0.625000
Mo3132  Mo  0.700000  0.550000  0.600000
Ta3101  Ta  0.725000  0.575000  0.625000
Nb3136  Nb  0.750000  0.550000  0.600000
Nb3137  Nb  0.775000  0.575000  0.625000
W3083  W  0.800000  0.550000  0.600000
Mo3133  Mo  0.825000  0.575000  0.625000
Ta3102  Ta  0.850000  0.550000  0.600000
Nb3138  Nb  0.875000  0.575000  0.625000
W3084  W  0.900000  0.550000  0.600000
W3085  W  0.925000  0.575000  0.625000
W3086  W  0.950000  0.550000  0.600000
Mo3134  Mo  0.975000  0.575000  0.625000
W3087  W  0.500000  0.600000  0.600000
Ta3103  Ta  0.525000  0.625000  0.625000
W3088  W  0.550000  0.600000  0.600000
Ta3104  Ta  0.575000  0.625000  0.625000
Mo3135  Mo  0.600000  0.600000  0.600000
Ta3105  Ta  0.625000  0.625000  0.625000
W3089  W  0.650000  0.600000  0.600000
Nb3139  Nb  0.675000  0.625000  0.625000
Ta3106  Ta  0.700000  0.600000  0.600000
Ta3107  Ta  0.725000  0.625000  0.625000
Nb3140  Nb  0.750000  0.600000  0.600000
Ta3108  Ta  0.775000  0.625000  0.625000
Nb3141  Nb  0.800000  0.600000  0.600000
Mo3136  Mo  0.825000  0.625000  0.625000
Mo3137  Mo  0.850000  0.600000  0.600000
Nb3142  Nb  0.875000  0.625000  0.625000
Ta3109  Ta  0.900000  0.600000  0.600000
Ta3110  Ta  0.925000  0.625000  0.625000
Ta3111  Ta  0.950000  0.600000  0.600000
W3090  W  0.975000  0.625000  0.625000
W3091  W  0.500000  0.650000  0.600000
Nb3143  Nb  0.550000  0.650000  0.600000
Nb3144  Nb  0.600000  0.650000  0.600000
Nb3145  Nb  0.650000  0.650000  0.600000
W3092  W  0.700000  0.650000  0.600000
Nb3146  Nb  0.750000  0.650000  0.600000
Mo3138  Mo  0.800000  0.650000  0.600000
Mo3139  Mo  0.850000  0.650000  0.600000
Nb3147  Nb  0.900000  0.650000  0.600000
Mo3140  Mo  0.950000  0.650000  0.600000
Mo3141  Mo  0.500000  0.350000  0.650000
Nb3148  Nb  0.525000  0.375000  0.675000
Mo3142  Mo  0.550000  0.350000  0.650000
Mo3143  Mo  0.575000  0.375000  0.675000
Mo3144  Mo  0.600000  0.350000  0.650000
Nb3149  Nb  0.625000  0.375000  0.675000
W3093  W  0.650000  0.350000  0.650000
Ta3112  Ta  0.675000  0.375000  0.675000
Mo3145  Mo  0.700000  0.350000  0.650000
W3094  W  0.725000  0.375000  0.675000
Nb3150  Nb  0.750000  0.350000  0.650000
Ta3113  Ta  0.775000  0.375000  0.675000
Mo3146  Mo  0.800000  0.350000  0.650000
Mo3147  Mo  0.825000  0.375000  0.675000
Nb3151  Nb  0.850000  0.350000  0.650000
Nb3152  Nb  0.875000  0.375000  0.675000
Ta3114  Ta  0.900000  0.350000  0.650000
Ta3115  Ta  0.925000  0.375000  0.675000
Ta3116  Ta  0.950000  0.350000  0.650000
W3095  W  0.975000  0.375000  0.675000
Ta3117  Ta  0.500000  0.400000  0.650000
W3096  W  0.525000  0.425000  0.675000
Nb3153  Nb  0.550000  0.400000  0.650000
Nb3154  Nb  0.575000  0.425000  0.675000
Ta3118  Ta  0.600000  0.400000  0.650000
W3097  W  0.625000  0.425000  0.675000
Nb3155  Nb  0.650000  0.400000  0.650000
W3098  W  0.675000  0.425000  0.675000
Nb3156  Nb  0.700000  0.400000  0.650000
Nb3157  Nb  0.725000  0.425000  0.675000
Nb3158  Nb  0.750000  0.400000  0.650000
Mo3148  Mo  0.775000  0.425000  0.675000
Mo3149  Mo  0.800000  0.400000  0.650000
W3099  W  0.825000  0.425000  0.675000
Ta3119  Ta  0.850000  0.400000  0.650000
Mo3150  Mo  0.875000  0.425000  0.675000
Mo3151  Mo  0.900000  0.400000  0.650000
Ta3120  Ta  0.925000  0.425000  0.675000
Mo3152  Mo  0.950000  0.400000  0.650000
Nb3159  Nb  0.975000  0.425000  0.675000
Nb3160  Nb  0.500000  0.450000  0.650000
Nb3161  Nb  0.525000  0.475000  0.675000
Nb3162  Nb  0.550000  0.450000  0.650000
Nb3163  Nb  0.575000  0.475000  0.675000
Mo3153  Mo  0.600000  0.450000  0.650000
Nb3164  Nb  0.625000  0.475000  0.675000
W3100  W  0.650000  0.450000  0.650000
W3101  W  0.675000  0.475000  0.675000
Nb3165  Nb  0.700000  0.450000  0.650000
Ta3121  Ta  0.725000  0.475000  0.675000
Mo3154  Mo  0.750000  0.450000  0.650000
Ta3122  Ta  0.775000  0.475000  0.675000
Ta3123  Ta  0.800000  0.450000  0.650000
Mo3155  Mo  0.825000  0.475000  0.675000
Mo3156  Mo  0.850000  0.450000  0.650000
Ta3124  Ta  0.875000  0.475000  0.675000
Ta3125  Ta  0.900000  0.450000  0.650000
Mo3157  Mo  0.925000  0.475000  0.675000
Mo3158  Mo  0.950000  0.450000  0.650000
Mo3159  Mo  0.975000  0.475000  0.675000
Mo3160  Mo  0.500000  0.500000  0.650000
Nb3166  Nb  0.525000  0.525000  0.675000
W3102  W  0.550000  0.500000  0.650000
Ta3126  Ta  0.575000  0.525000  0.675000
W3103  W  0.600000  0.500000  0.650000
Ta3127  Ta  0.625000  0.525000  0.675000
Nb3167  Nb  0.650000  0.500000  0.650000
Nb3168  Nb  0.675000  0.525000  0.675000
W3104  W  0.700000  0.500000  0.650000
Nb3169  Nb  0.725000  0.525000  0.675000
Ta3128  Ta  0.750000  0.500000  0.650000
W3105  W  0.775000  0.525000  0.675000
Nb3170  Nb  0.800000  0.500000  0.650000
Nb3171  Nb  0.825000  0.525000  0.675000
Ta3129  Ta  0.850000  0.500000  0.650000
Mo3161  Mo  0.875000  0.525000  0.675000
Nb3172  Nb  0.900000  0.500000  0.650000
Nb3173  Nb  0.925000  0.525000  0.675000
Mo3162  Mo  0.950000  0.500000  0.650000
W3106  W  0.975000  0.525000  0.675000
Ta3130  Ta  0.500000  0.550000  0.650000
Nb3174  Nb  0.525000  0.575000  0.675000
Ta3131  Ta  0.550000  0.550000  0.650000
W3107  W  0.575000  0.575000  0.675000
Mo3163  Mo  0.600000  0.550000  0.650000
Nb3175  Nb  0.625000  0.575000  0.675000
Mo3164  Mo  0.650000  0.550000  0.650000
Ta3132  Ta  0.675000  0.575000  0.675000
Nb3176  Nb  0.700000  0.550000  0.650000
Nb3177  Nb  0.725000  0.575000  0.675000
Nb3178  Nb  0.750000  0.550000  0.650000
Nb3179  Nb  0.775000  0.575000  0.675000
Mo3165  Mo  0.800000  0.550000  0.650000
Ta3133  Ta  0.825000  0.575000  0.675000
Ta3134  Ta  0.850000  0.550000  0.650000
W3108  W  0.875000  0.575000  0.675000
Ta3135  Ta  0.900000  0.550000  0.650000
Mo3166  Mo  0.925000  0.575000  0.675000
Ta3136  Ta  0.950000  0.550000  0.650000
Mo3167  Mo  0.975000  0.575000  0.675000
W3109  W  0.500000  0.600000  0.650000
Mo3168  Mo  0.525000  0.625000  0.675000
Mo3169  Mo  0.550000  0.600000  0.650000
Ta3137  Ta  0.575000  0.625000  0.675000
Ta3138  Ta  0.600000  0.600000  0.650000
W3110  W  0.625000  0.625000  0.675000
Mo3170  Mo  0.650000  0.600000  0.650000
Ta3139  Ta  0.675000  0.625000  0.675000
W3111  W  0.700000  0.600000  0.650000
Mo3171  Mo  0.725000  0.625000  0.675000
Ta3140  Ta  0.750000  0.600000  0.650000
W3112  W  0.775000  0.625000  0.675000
Nb3180  Nb  0.800000  0.600000  0.650000
Ta3141  Ta  0.825000  0.625000  0.675000
Nb3181  Nb  0.850000  0.600000  0.650000
Ta3142  Ta  0.875000  0.625000  0.675000
Ta3143  Ta  0.900000  0.600000  0.650000
Nb3182  Nb  0.925000  0.625000  0.675000
Mo3172  Mo  0.950000  0.600000  0.650000
Nb3183  Nb  0.975000  0.625000  0.675000
Ta3144  Ta  0.500000  0.650000  0.650000
Mo3173  Mo  0.550000  0.650000  0.650000
Nb3184  Nb  0.600000  0.650000  0.650000
Mo3174  Mo  0.650000  0.650000  0.650000
Ta3145  Ta  0.700000  0.650000  0.650000
Mo3175  Mo  0.750000  0.650000  0.650000
Nb3185  Nb  0.800000  0.650000  0.650000
Ta3146  Ta  0.850000  0.650000  0.650000
Nb3186  Nb  0.900000  0.650000  0.650000
Ta3147  Ta  0.950000  0.650000  0.650000
W3113  W  0.500000  0.350000  0.700000
Nb3187  Nb  0.525000  0.375000  0.725000
W3114  W  0.550000  0.350000  0.700000
Ta3148  Ta  0.575000  0.375000  0.725000
W3115  W  0.600000  0.350000  0.700000
Nb3188  Nb  0.625000  0.375000  0.725000
Nb3189  Nb  0.650000  0.350000  0.700000
Nb3190  Nb  0.675000  0.375000  0.725000
W3116  W  0.700000  0.350000  0.700000
Nb3191  Nb  0.725000  0.375000  0.725000
W3117  W  0.750000  0.350000  0.700000
W3118  W  0.775000  0.375000  0.725000
Ta3149  Ta  0.800000  0.350000  0.700000
Nb3192  Nb  0.825000  0.375000  0.725000
Nb3193  Nb  0.850000  0.350000  0.700000
Ta3150  Ta  0.875000  0.375000  0.725000
Nb3194  Nb  0.900000  0.350000  0.700000
W3119  W  0.925000  0.375000  0.725000
Nb3195  Nb  0.950000  0.350000  0.700000
Nb3196  Nb  0.975000  0.375000  0.725000
W3120  W  0.500000  0.400000  0.700000
Mo3176  Mo  0.525000  0.425000  0.725000
Ta3151  Ta  0.550000  0.400000  0.700000
Ta3152  Ta  0.575000  0.425000  0.725000
W3121  W  0.600000  0.400000  0.700000
Nb3197  Nb  0.625000  0.425000  0.725000
Mo3177  Mo  0.650000  0.400000  0.700000
W3122  W  0.675000  0.425000  0.725000
W3123  W  0.700000  0.400000  0.700000
Nb3198  Nb  0.725000  0.425000  0.725000
Ta3153  Ta  0.750000  0.400000  0.700000
Mo3178  Mo  0.775000  0.425000  0.725000
Mo3179  Mo  0.800000  0.400000  0.700000
Ta3154  Ta  0.825000  0.425000  0.725000
Ta3155  Ta  0.850000  0.400000  0.700000
W3124  W  0.875000  0.425000  0.725000
Ta3156  Ta  0.900000  0.400000  0.700000
Ta3157  Ta  0.925000  0.425000  0.725000
Mo3180  Mo  0.950000  0.400000  0.700000
W3125  W  0.975000  0.425000  0.725000
Ta3158  Ta  0.500000  0.450000  0.700000
Nb3199  Nb  0.525000  0.475000  0.725000
Mo3181  Mo  0.550000  0.450000  0.700000
Ta3159  Ta  0.575000  0.475000  0.725000
W3126  W  0.600000  0.450000  0.700000
Mo3182  Mo  0.625000  0.475000  0.725000
Ta3160  Ta  0.650000  0.450000  0.700000
Nb3200  Nb  0.675000  0.475000  0.725000
W3127  W  0.700000  0.450000  0.700000
Nb3201  Nb  0.725000  0.475000  0.725000
Mo3183  Mo  0.750000  0.450000  0.700000
W3128  W  0.775000  0.475000  0.725000
Ta3161  Ta  0.800000  0.450000  0.700000
Ta3162  Ta  0.825000  0.475000  0.725000
Ta3163  Ta  0.850000  0.450000  0.700000
Nb3202  Nb  0.875000  0.475000  0.725000
Ta3164  Ta  0.900000  0.450000  0.700000
Nb3203  Nb  0.925000  0.475000  0.725000
Mo3184  Mo  0.950000  0.450000  0.700000
Nb3204  Nb  0.975000  0.475000  0.725000
Mo3185  Mo  0.500000  0.500000  0.700000
Ta3165  Ta  0.525000  0.525000  0.725000
Ta3166  Ta  0.550000  0.500000  0.700000
Mo3186  Mo  0.575000  0.525000  0.725000
Nb3205  Nb  0.600000  0.500000  0.700000
Ta3167  Ta  0.625000  0.525000  0.725000
Ta3168  Ta  0.650000  0.500000  0.700000
Mo3187  Mo  0.675000  0.525000  0.725000
W3129  W  0.700000  0.500000  0.700000
Mo3188  Mo  0.725000  0.525000  0.725000
Mo3189  Mo  0.750000  0.500000  0.700000
W3130  W  0.775000  0.525000  0.725000
Mo3190  Mo  0.800000  0.500000  0.700000
Mo3191  Mo  0.825000  0.525000  0.725000
Mo3192  Mo  0.850000  0.500000  0.700000
Ta3169  Ta  0.875000  0.525000  0.725000
W3131  W  0.900000  0.500000  0.700000
W3132  W  0.925000  0.525000  0.725000
Ta3170  Ta  0.950000  0.500000  0.700000
Ta3171  Ta  0.975000  0.525000  0.725000
Ta3172  Ta  0.500000  0.550000  0.700000
Mo3193  Mo  0.525000  0.575000  0.725000
Nb3206  Nb  0.550000  0.550000  0.700000
Nb3207  Nb  0.575000  0.575000  0.725000
Ta3173  Ta  0.600000  0.550000  0.700000
Mo3194  Mo  0.625000  0.575000  0.725000
Nb3208  Nb  0.650000  0.550000  0.700000
Nb3209  Nb  0.675000  0.575000  0.725000
W3133  W  0.700000  0.550000  0.700000
Ta3174  Ta  0.725000  0.575000  0.725000
Nb3210  Nb  0.750000  0.550000  0.700000
Nb3211  Nb  0.775000  0.575000  0.725000
W3134  W  0.800000  0.550000  0.700000
W3135  W  0.825000  0.575000  0.725000
W3136  W  0.850000  0.550000  0.700000
W3137  W  0.875000  0.575000  0.725000
Ta3175  Ta  0.900000  0.550000  0.700000
W3138  W  0.925000  0.575000  0.725000
Mo3195  Mo  0.950000  0.550000  0.700000
W3139  W  0.975000  0.575000  0.725000
W3140  W  0.500000  0.600000  0.700000
Nb3212  Nb  0.525000  0.625000  0.725000
Mo3196  Mo  0.550000  0.600000  0.700000
Ta3176  Ta  0.575000  0.625000  0.725000
Nb3213  Nb  0.600000  0.600000  0.700000
Mo3197  Mo  0.625000  0.625000  0.725000
W3141  W  0.650000  0.600000  0.700000
W3142  W  0.675000  0.625000  0.725000
Nb3214  Nb  0.700000  0.600000  0.700000
W3143  W  0.725000  0.625000  0.725000
Mo3198  Mo  0.750000  0.600000  0.700000
Ta3177  Ta  0.775000  0.625000  0.725000
Nb3215  Nb  0.800000  0.600000  0.700000
Ta3178  Ta  0.825000  0.625000  0.725000
Nb3216  Nb  0.850000  0.600000  0.700000
Ta3179  Ta  0.875000  0.625000  0.725000
W3144  W  0.900000  0.600000  0.700000
Nb3217  Nb  0.925000  0.625000  0.725000
Ta3180  Ta  0.950000  0.600000  0.700000
Nb3218  Nb  0.975000  0.625000  0.725000
Nb3219  Nb  0.500000  0.650000  0.700000
Nb3220  Nb  0.550000  0.650000  0.700000
Nb3221  Nb  0.600000  0.650000  0.700000
Nb3222  Nb  0.650000  0.650000  0.700000
Mo3199  Mo  0.700000  0.650000  0.700000
Mo3200  Mo  0.750000  0.650000  0.700000
W3145  W  0.800000  0.650000  0.700000
Nb3223  Nb  0.850000  0.650000  0.700000
W3146  W  0.900000  0.650000  0.700000
Mo3201  Mo  0.950000  0.650000  0.700000
W3147  W  0.500000  0.350000  0.750000
W3148  W  0.525000  0.375000  0.775000
Ta3181  Ta  0.550000  0.350000  0.750000
Ta3182  Ta  0.575000  0.375000  0.775000
Nb3224  Nb  0.600000  0.350000  0.750000
Nb3225  Nb  0.625000  0.375000  0.775000
Nb3226  Nb  0.650000  0.350000  0.750000
Mo3202  Mo  0.675000  0.375000  0.775000
Mo3203  Mo  0.700000  0.350000  0.750000
Mo3204  Mo  0.725000  0.375000  0.775000
Nb3227  Nb  0.750000  0.350000  0.750000
Nb3228  Nb  0.775000  0.375000  0.775000
Ta3183  Ta  0.800000  0.350000  0.750000
Ta3184  Ta  0.825000  0.375000  0.775000
Mo3205  Mo  0.850000  0.350000  0.750000
Mo3206  Mo  0.875000  0.375000  0.775000
W3149  W  0.900000  0.350000  0.750000
Ta3185  Ta  0.925000  0.375000  0.775000
W3150  W  0.950000  0.350000  0.750000
W3151  W  0.975000  0.375000  0.775000
Mo3207  Mo  0.500000  0.400000  0.750000
Nb3229  Nb  0.525000  0.425000  0.775000
Mo3208  Mo  0.550000  0.400000  0.750000
Mo3209  Mo  0.575000  0.425000  0.775000
Mo3210  Mo  0.600000  0.400000  0.750000
W3152  W  0.625000  0.425000  0.775000
W3153  W  0.650000  0.400000  0.750000
W3154  W  0.675000  0.425000  0.775000
Nb3230  Nb  0.700000  0.400000  0.750000
Mo3211  Mo  0.725000  0.425000  0.775000
Nb3231  Nb  0.750000  0.400000  0.750000
W3155  W  0.775000  0.425000  0.775000
W3156  W  0.800000  0.400000  0.750000
W3157  W  0.825000  0.425000  0.775000
Nb3232  Nb  0.850000  0.400000  0.750000
Mo3212  Mo  0.875000  0.425000  0.775000
W3158  W  0.900000  0.400000  0.750000
W3159  W  0.925000  0.425000  0.775000
Ta3186  Ta  0.950000  0.400000  0.750000
Ta3187  Ta  0.975000  0.425000  0.775000
Ta3188  Ta  0.500000  0.450000  0.750000
W3160  W  0.525000  0.475000  0.775000
Nb3233  Nb  0.550000  0.450000  0.750000
W3161  W  0.575000  0.475000  0.775000
Ta3189  Ta  0.600000  0.450000  0.750000
Ta3190  Ta  0.625000  0.475000  0.775000
Ta3191  Ta  0.650000  0.450000  0.750000
Nb3234  Nb  0.675000  0.475000  0.775000
Ta3192  Ta  0.700000  0.450000  0.750000
Ta3193  Ta  0.725000  0.475000  0.775000
Ta3194  Ta  0.750000  0.450000  0.750000
W3162  W  0.775000  0.475000  0.775000
Ta3195  Ta  0.800000  0.450000  0.750000
W3163  W  0.825000  0.475000  0.775000
Ta3196  Ta  0.850000  0.450000  0.750000
Mo3213  Mo  0.875000  0.475000  0.775000
Ta3197  Ta  0.900000  0.450000  0.750000
W3164  W  0.925000  0.475000  0.775000
Nb3235  Nb  0.950000  0.450000  0.750000
Ta3198  Ta  0.975000  0.475000  0.775000
Nb3236  Nb  0.500000  0.500000  0.750000
Mo3214  Mo  0.525000  0.525000  0.775000
Ta3199  Ta  0.550000  0.500000  0.750000
Ta3200  Ta  0.575000  0.525000  0.775000
W3165  W  0.600000  0.500000  0.750000
W3166  W  0.625000  0.525000  0.775000
W3167  W  0.650000  0.500000  0.750000
Ta3201  Ta  0.675000  0.525000  0.775000
Nb3237  Nb  0.700000  0.500000  0.750000
Ta3202  Ta  0.725000  0.525000  0.775000
Mo3215  Mo  0.750000  0.500000  0.750000
Ta3203  Ta  0.775000  0.525000  0.775000
W3168  W  0.800000  0.500000  0.750000
Ta3204  Ta  0.825000  0.525000  0.775000
W3169  W  0.850000  0.500000  0.750000
W3170  W  0.875000  0.525000  0.775000
Nb3238  Nb  0.900000  0.500000  0.750000
Nb3239  Nb  0.925000  0.525000  0.775000
Nb3240  Nb  0.950000  0.500000  0.750000
Ta3205  Ta  0.975000  0.525000  0.775000
Mo3216  Mo  0.500000  0.550000  0.750000
Nb3241  Nb  0.525000  0.575000  0.775000
Ta3206  Ta  0.550000  0.550000  0.750000
Nb3242  Nb  0.575000  0.575000  0.775000
Mo3217  Mo  0.600000  0.550000  0.750000
Mo3218  Mo  0.625000  0.575000  0.775000
Nb3243  Nb  0.650000  0.550000  0.750000
W3171  W  0.675000  0.575000  0.775000
Mo3219  Mo  0.700000  0.550000  0.750000
W3172  W  0.725000  0.575000  0.775000
Mo3220  Mo  0.750000  0.550000  0.750000
Mo3221  Mo  0.775000  0.575000  0.775000
Mo3222  Mo  0.800000  0.550000  0.750000
Mo3223  Mo  0.825000  0.575000  0.775000
Mo3224  Mo  0.850000  0.550000  0.750000
Nb3244  Nb  0.875000  0.575000  0.775000
Mo3225  Mo  0.900000  0.550000  0.750000
Nb3245  Nb  0.925000  0.575000  0.775000
Nb3246  Nb  0.950000  0.550000  0.750000
Nb3247  Nb  0.975000  0.575000  0.775000
Nb3248  Nb  0.500000  0.600000  0.750000
Mo3226  Mo  0.525000  0.625000  0.775000
W3173  W  0.550000  0.600000  0.750000
Ta3207  Ta  0.575000  0.625000  0.775000
Mo3227  Mo  0.600000  0.600000  0.750000
W3174  W  0.625000  0.625000  0.775000
Mo3228  Mo  0.650000  0.600000  0.750000
W3175  W  0.675000  0.625000  0.775000
Mo3229  Mo  0.700000  0.600000  0.750000
Nb3249  Nb  0.725000  0.625000  0.775000
Ta3208  Ta  0.750000  0.600000  0.750000
W3176  W  0.775000  0.625000  0.775000
Nb3250  Nb  0.800000  0.600000  0.750000
Ta3209  Ta  0.825000  0.625000  0.775000
Mo3230  Mo  0.850000  0.600000  0.750000
Mo3231  Mo  0.875000  0.625000  0.775000
Nb3251  Nb  0.900000  0.600000  0.750000
Mo3232  Mo  0.925000  0.625000  0.775000
W3177  W  0.950000  0.600000  0.750000
Ta3210  Ta  0.975000  0.625000  0.775000
Nb3252  Nb  0.500000  0.650000  0.750000
Mo3233  Mo  0.550000  0.650000  0.750000
Mo3234  Mo  0.600000  0.650000  0.750000
W3178  W  0.650000  0.650000  0.750000
W3179  W  0.700000  0.650000  0.750000
W3180  W  0.750000  0.650000  0.750000
Nb3253  Nb  0.800000  0.650000  0.750000
Nb3254  Nb  0.850000  0.650000  0.750000
Mo3235  Mo  0.900000  0.650000  0.750000
Ta3211  Ta  0.950000  0.650000  0.750000
Nb3255  Nb  0.500000  0.350000  0.800000
Mo3236  Mo  0.525000  0.375000  0.825000
Nb3256  Nb  0.550000  0.350000  0.800000
Ta3212  Ta  0.575000  0.375000  0.825000
Mo3237  Mo  0.600000  0.350000  0.800000
W3181  W  0.625000  0.375000  0.825000
Mo3238  Mo  0.650000  0.350000  0.800000
W3182  W  0.675000  0.375000  0.825000
Ta3213  Ta  0.700000  0.350000  0.800000
Ta3214  Ta  0.725000  0.375000  0.825000
Mo3239  Mo  0.750000  0.350000  0.800000
W3183  W  0.775000  0.375000  0.825000
Nb3257  Nb  0.800000  0.350000  0.800000
Nb3258  Nb  0.825000  0.375000  0.825000
W3184  W  0.850000  0.350000  0.800000
Nb3259  Nb  0.875000  0.375000  0.825000
Mo3240  Mo  0.900000  0.350000  0.800000
Ta3215  Ta  0.925000  0.375000  0.825000
Nb3260  Nb  0.950000  0.350000  0.800000
Ta3216  Ta  0.975000  0.375000  0.825000
Mo3241  Mo  0.500000  0.400000  0.800000
Nb3261  Nb  0.525000  0.425000  0.825000
Mo3242  Mo  0.550000  0.400000  0.800000
Ta3217  Ta  0.575000  0.425000  0.825000
Mo3243  Mo  0.600000  0.400000  0.800000
Ta3218  Ta  0.625000  0.425000  0.825000
W3185  W  0.650000  0.400000  0.800000
Mo3244  Mo  0.675000  0.425000  0.825000
Mo3245  Mo  0.700000  0.400000  0.800000
Nb3262  Nb  0.725000  0.425000  0.825000
Mo3246  Mo  0.750000  0.400000  0.800000
W3186  W  0.775000  0.425000  0.825000
Nb3263  Nb  0.800000  0.400000  0.800000
Nb3264  Nb  0.825000  0.425000  0.825000
W3187  W  0.850000  0.400000  0.800000
Mo3247  Mo  0.875000  0.425000  0.825000
W3188  W  0.900000  0.400000  0.800000
W3189  W  0.925000  0.425000  0.825000
W3190  W  0.950000  0.400000  0.800000
W3191  W  0.975000  0.425000  0.825000
W3192  W  0.500000  0.450000  0.800000
W3193  W  0.525000  0.475000  0.825000
Nb3265  Nb  0.550000  0.450000  0.800000
Ta3219  Ta  0.575000  0.475000  0.825000
Nb3266  Nb  0.600000  0.450000  0.800000
Nb3267  Nb  0.625000  0.475000  0.825000
W3194  W  0.650000  0.450000  0.800000
Nb3268  Nb  0.675000  0.475000  0.825000
Ta3220  Ta  0.700000  0.450000  0.800000
W3195  W  0.725000  0.475000  0.825000
Mo3248  Mo  0.750000  0.450000  0.800000
W3196  W  0.775000  0.475000  0.825000
Ta3221  Ta  0.800000  0.450000  0.800000
Mo3249  Mo  0.825000  0.475000  0.825000
Mo3250  Mo  0.850000  0.450000  0.800000
Nb3269  Nb  0.875000  0.475000  0.825000
Mo3251  Mo  0.900000  0.450000  0.800000
Mo3252  Mo  0.925000  0.475000  0.825000
W3197  W  0.950000  0.450000  0.800000
Ta3222  Ta  0.975000  0.475000  0.825000
Ta3223  Ta  0.500000  0.500000  0.800000
W3198  W  0.525000  0.525000  0.825000
Ta3224  Ta  0.550000  0.500000  0.800000
Mo3253  Mo  0.575000  0.525000  0.825000
Ta3225  Ta  0.600000  0.500000  0.800000
W3199  W  0.625000  0.525000  0.825000
W3200  W  0.650000  0.500000  0.800000
W3201  W  0.675000  0.525000  0.825000
W3202  W  0.700000  0.500000  0.800000
Ta3226  Ta  0.725000  0.525000  0.825000
Ta3227  Ta  0.750000  0.500000  0.800000
Ta3228  Ta  0.775000  0.525000  0.825000
W3203  W  0.800000  0.500000  0.800000
Ta3229  Ta  0.825000  0.525000  0.825000
Mo3254  Mo  0.850000  0.500000  0.800000
Nb3270  Nb  0.875000  0.525000  0.825000
Mo3255  Mo  0.900000  0.500000  0.800000
W3204  W  0.925000  0.525000  0.825000
Ta3230  Ta  0.950000  0.500000  0.800000
Nb3271  Nb  0.975000  0.525000  0.825000
Nb3272  Nb  0.500000  0.550000  0.800000
Nb3273  Nb  0.525000  0.575000  0.825000
Nb3274  Nb  0.550000  0.550000  0.800000
Ta3231  Ta  0.575000  0.575000  0.825000
Ta3232  Ta  0.600000  0.550000  0.800000
Nb3275  Nb  0.625000  0.575000  0.825000
Ta3233  Ta  0.650000  0.550000  0.800000
Ta3234  Ta  0.675000  0.575000  0.825000
Mo3256  Mo  0.700000  0.550000  0.800000
Mo3257  Mo  0.725000  0.575000  0.825000
W3205  W  0.750000  0.550000  0.800000
W3206  W  0.775000  0.575000  0.825000
Ta3235  Ta  0.800000  0.550000  0.800000
Ta3236  Ta  0.825000  0.575000  0.825000
Mo3258  Mo  0.850000  0.550000  0.800000
Ta3237  Ta  0.875000  0.575000  0.825000
Nb3276  Nb  0.900000  0.550000  0.800000
Nb3277  Nb  0.925000  0.575000  0.825000
W3207  W  0.950000  0.550000  0.800000
W3208  W  0.975000  0.575000  0.825000
Mo3259  Mo  0.500000  0.600000  0.800000
Mo3260  Mo  0.525000  0.625000  0.825000
W3209  W  0.550000  0.600000  0.800000
Ta3238  Ta  0.575000  0.625000  0.825000
W3210  W  0.600000  0.600000  0.800000
Nb3278  Nb  0.625000  0.625000  0.825000
W3211  W  0.650000  0.600000  0.800000
Nb3279  Nb  0.675000  0.625000  0.825000
Ta3239  Ta  0.700000  0.600000  0.800000
W3212  W  0.725000  0.625000  0.825000
Ta3240  Ta  0.750000  0.600000  0.800000
W3213  W  0.775000  0.625000  0.825000
Mo3261  Mo  0.800000  0.600000  0.800000
Mo3262  Mo  0.825000  0.625000  0.825000
W3214  W  0.850000  0.600000  0.800000
Mo3263  Mo  0.875000  0.625000  0.825000
Mo3264  Mo  0.900000  0.600000  0.800000
W3215  W  0.925000  0.625000  0.825000
Mo3265  Mo  0.950000  0.600000  0.800000
Nb3280  Nb  0.975000  0.625000  0.825000
Ta3241  Ta  0.500000  0.650000  0.800000
Ta3242  Ta  0.550000  0.650000  0.800000
Nb3281  Nb  0.600000  0.650000  0.800000
Mo3266  Mo  0.650000  0.650000  0.800000
Nb3282  Nb  0.700000  0.650000  0.800000
Ta3243  Ta  0.750000  0.650000  0.800000
Ta3244  Ta  0.800000  0.650000  0.800000
Ta3245  Ta  0.850000  0.650000  0.800000
Ta3246  Ta  0.900000  0.650000  0.800000
W3216  W  0.950000  0.650000  0.800000
W3217  W  0.500000  0.350000  0.850000
W3218  W  0.525000  0.375000  0.875000
Ta3247  Ta  0.550000  0.350000  0.850000
W3219  W  0.575000  0.375000  0.875000
Nb3283  Nb  0.600000  0.350000  0.850000
Nb3284  Nb  0.625000  0.375000  0.875000
Ta3248  Ta  0.650000  0.350000  0.850000
Nb3285  Nb  0.675000  0.375000  0.875000
Nb3286  Nb  0.700000  0.350000  0.850000
W3220  W  0.725000  0.375000  0.875000
Mo3267  Mo  0.750000  0.350000  0.850000
Ta3249  Ta  0.775000  0.375000  0.875000
Nb3287  Nb  0.800000  0.350000  0.850000
W3221  W  0.825000  0.375000  0.875000
Nb3288  Nb  0.850000  0.350000  0.850000
Ta3250  Ta  0.875000  0.375000  0.875000
Ta3251  Ta  0.900000  0.350000  0.850000
Ta3252  Ta  0.925000  0.375000  0.875000
Ta3253  Ta  0.950000  0.350000  0.850000
Ta3254  Ta  0.975000  0.375000  0.875000
W3222  W  0.500000  0.400000  0.850000
Mo3268  Mo  0.525000  0.425000  0.875000
Nb3289  Nb  0.550000  0.400000  0.850000
Ta3255  Ta  0.575000  0.425000  0.875000
Mo3269  Mo  0.600000  0.400000  0.850000
Ta3256  Ta  0.625000  0.425000  0.875000
Nb3290  Nb  0.650000  0.400000  0.850000
Nb3291  Nb  0.675000  0.425000  0.875000
Ta3257  Ta  0.700000  0.400000  0.850000
Nb3292  Nb  0.725000  0.425000  0.875000
W3223  W  0.750000  0.400000  0.850000
Mo3270  Mo  0.775000  0.425000  0.875000
W3224  W  0.800000  0.400000  0.850000
Mo3271  Mo  0.825000  0.425000  0.875000
Mo3272  Mo  0.850000  0.400000  0.850000
Mo3273  Mo  0.875000  0.425000  0.875000
W3225  W  0.900000  0.400000  0.850000
Mo3274  Mo  0.925000  0.425000  0.875000
Ta3258  Ta  0.950000  0.400000  0.850000
Nb3293  Nb  0.975000  0.425000  0.875000
Nb3294  Nb  0.500000  0.450000  0.850000
Nb3295  Nb  0.525000  0.475000  0.875000
W3226  W  0.550000  0.450000  0.850000
Mo3275  Mo  0.575000  0.475000  0.875000
W3227  W  0.600000  0.450000  0.850000
Mo3276  Mo  0.625000  0.475000  0.875000
W3228  W  0.650000  0.450000  0.850000
W3229  W  0.675000  0.475000  0.875000
Ta3259  Ta  0.700000  0.450000  0.850000
W3230  W  0.725000  0.475000  0.875000
Nb3296  Nb  0.750000  0.450000  0.850000
Mo3277  Mo  0.775000  0.475000  0.875000
W3231  W  0.800000  0.450000  0.850000
Ta3260  Ta  0.825000  0.475000  0.875000
Nb3297  Nb  0.850000  0.450000  0.850000
W3232  W  0.875000  0.475000  0.875000
Ta3261  Ta  0.900000  0.450000  0.850000
Nb3298  Nb  0.925000  0.475000  0.875000
Ta3262  Ta  0.950000  0.450000  0.850000
Ta3263  Ta  0.975000  0.475000  0.875000
Mo3278  Mo  0.500000  0.500000  0.850000
Ta3264  Ta  0.525000  0.525000  0.875000
Nb3299  Nb  0.550000  0.500000  0.850000
Ta3265  Ta  0.575000  0.525000  0.875000
Mo3279  Mo  0.600000  0.500000  0.850000
W3233  W  0.625000  0.525000  0.875000
Ta3266  Ta  0.650000  0.500000  0.850000
W3234  W  0.675000  0.525000  0.875000
Nb3300  Nb  0.700000  0.500000  0.850000
W3235  W  0.725000  0.525000  0.875000
W3236  W  0.750000  0.500000  0.850000
W3237  W  0.775000  0.525000  0.875000
W3238  W  0.800000  0.500000  0.850000
Nb3301  Nb  0.825000  0.525000  0.875000
W3239  W  0.850000  0.500000  0.850000
Ta3267  Ta  0.875000  0.525000  0.875000
W3240  W  0.900000  0.500000  0.850000
Ta3268  Ta  0.925000  0.525000  0.875000
Mo3280  Mo  0.950000  0.500000  0.850000
Mo3281  Mo  0.975000  0.525000  0.875000
Mo3282  Mo  0.500000  0.550000  0.850000
Mo3283  Mo  0.525000  0.575000  0.875000
W3241  W  0.550000  0.550000  0.850000
Ta3269  Ta  0.575000  0.575000  0.875000
Ta3270  Ta  0.600000  0.550000  0.850000
Ta3271  Ta  0.625000  0.575000  0.875000
Mo3284  Mo  0.650000  0.550000  0.850000
Mo3285  Mo  0.675000  0.575000  0.875000
Ta3272  Ta  0.700000  0.550000  0.850000
W3242  W  0.725000  0.575000  0.875000
W3243  W  0.750000  0.550000  0.850000
Ta3273  Ta  0.775000  0.575000  0.875000
Ta3274  Ta  0.800000  0.550000  0.850000
Nb3302  Nb  0.825000  0.575000  0.875000
W3244  W  0.850000  0.550000  0.850000
Nb3303  Nb  0.875000  0.575000  0.875000
Nb3304  Nb  0.900000  0.550000  0.850000
Nb3305  Nb  0.925000  0.575000  0.875000
Mo3286  Mo  0.950000  0.550000  0.850000
Ta3275  Ta  0.975000  0.575000  0.875000
W3245  W  0.500000  0.600000  0.850000
Nb3306  Nb  0.525000  0.625000  0.875000
Nb3307  Nb  0.550000  0.600000  0.850000
W3246  W  0.575000  0.625000  0.875000
Ta3276  Ta  0.600000  0.600000  0.850000
Mo3287  Mo  0.625000  0.625000  0.875000
Ta3277  Ta  0.650000  0.600000  0.850000
Ta3278  Ta  0.675000  0.625000  0.875000
W3247  W  0.700000  0.600000  0.850000
Nb3308  Nb  0.725000  0.625000  0.875000
Ta3279  Ta  0.750000  0.600000  0.850000
Ta3280  Ta  0.775000  0.625000  0.875000
Nb3309  Nb  0.800000  0.600000  0.850000
Ta3281  Ta  0.825000  0.625000  0.875000
W3248  W  0.850000  0.600000  0.850000
Ta3282  Ta  0.875000  0.625000  0.875000
Ta3283  Ta  0.900000  0.600000  0.850000
W3249  W  0.925000  0.625000  0.875000
Mo3288  Mo  0.950000  0.600000  0.850000
Mo3289  Mo  0.975000  0.625000  0.875000
Nb3310  Nb  0.500000  0.650000  0.850000
W3250  W  0.550000  0.650000  0.850000
Mo3290  Mo  0.600000  0.650000  0.850000
W3251  W  0.650000  0.650000  0.850000
Mo3291  Mo  0.700000  0.650000  0.850000
Nb3311  Nb  0.750000  0.650000  0.850000
W3252  W  0.800000  0.650000  0.850000
Ta3284  Ta  0.850000  0.650000  0.850000
Nb3312  Nb  0.900000  0.650000  0.850000
Ta3285  Ta  0.950000  0.650000  0.850000
W3253  W  0.500000  0.350000  0.900000
Nb3313  Nb  0.525000  0.375000  0.925000
W3254  W  0.550000  0.350000  0.900000
W3255  W  0.575000  0.375000  0.925000
Ta3286  Ta  0.600000  0.350000  0.900000
Mo3292  Mo  0.625000  0.375000  0.925000
Ta3287  Ta  0.650000  0.350000  0.900000
Mo3293  Mo  0.675000  0.375000  0.925000
Mo3294  Mo  0.700000  0.350000  0.900000
Ta3288  Ta  0.725000  0.375000  0.925000
Ta3289  Ta  0.750000  0.350000  0.900000
Nb3314  Nb  0.775000  0.375000  0.925000
W3256  W  0.800000  0.350000  0.900000
Mo3295  Mo  0.825000  0.375000  0.925000
Nb3315  Nb  0.850000  0.350000  0.900000
W3257  W  0.875000  0.375000  0.925000
Mo3296  Mo  0.900000  0.350000  0.900000
Nb3316  Nb  0.925000  0.375000  0.925000
Ta3290  Ta  0.950000  0.350000  0.900000
W3258  W  0.975000  0.375000  0.925000
W3259  W  0.500000  0.400000  0.900000
Mo3297  Mo  0.525000  0.425000  0.925000
Nb3317  Nb  0.550000  0.400000  0.900000
Mo3298  Mo  0.575000  0.425000  0.925000
Mo3299  Mo  0.600000  0.400000  0.900000
Ta3291  Ta  0.625000  0.425000  0.925000
Mo3300  Mo  0.650000  0.400000  0.900000
Mo3301  Mo  0.675000  0.425000  0.925000
Mo3302  Mo  0.700000  0.400000  0.900000
Mo3303  Mo  0.725000  0.425000  0.925000
Mo3304  Mo  0.750000  0.400000  0.900000
Mo3305  Mo  0.775000  0.425000  0.925000
Mo3306  Mo  0.800000  0.400000  0.900000
Nb3318  Nb  0.825000  0.425000  0.925000
W3260  W  0.850000  0.400000  0.900000
W3261  W  0.875000  0.425000  0.925000
W3262  W  0.900000  0.400000  0.900000
Ta3292  Ta  0.925000  0.425000  0.925000
W3263  W  0.950000  0.400000  0.900000
Mo3307  Mo  0.975000  0.425000  0.925000
Ta3293  Ta  0.500000  0.450000  0.900000
Nb3319  Nb  0.525000  0.475000  0.925000
Mo3308  Mo  0.550000  0.450000  0.900000
W3264  W  0.575000  0.475000  0.925000
Nb3320  Nb  0.600000  0.450000  0.900000
Nb3321  Nb  0.625000  0.475000  0.925000
Nb3322  Nb  0.650000  0.450000  0.900000
Mo3309  Mo  0.675000  0.475000  0.925000
Nb3323  Nb  0.700000  0.450000  0.900000
Mo3310  Mo  0.725000  0.475000  0.925000
Mo3311  Mo  0.750000  0.450000  0.900000
W3265  W  0.775000  0.475000  0.925000
W3266  W  0.800000  0.450000  0.900000
Nb3324  Nb  0.825000  0.475000  0.925000
Nb3325  Nb  0.850000  0.450000  0.900000
Nb3326  Nb  0.875000  0.475000  0.925000
W3267  W  0.900000  0.450000  0.900000
Nb3327  Nb  0.925000  0.475000  0.925000
W3268  W  0.950000  0.450000  0.900000
Nb3328  Nb  0.975000  0.475000  0.925000
W3269  W  0.500000  0.500000  0.900000
Mo3312  Mo  0.525000  0.525000  0.925000
Ta3294  Ta  0.550000  0.500000  0.900000
Ta3295  Ta  0.575000  0.525000  0.925000
Ta3296  Ta  0.600000  0.500000  0.900000
Ta3297  Ta  0.625000  0.525000  0.925000
Nb3329  Nb  0.650000  0.500000  0.900000
Nb3330  Nb  0.675000  0.525000  0.925000
W3270  W  0.700000  0.500000  0.900000
Ta3298  Ta  0.725000  0.525000  0.925000
Mo3313  Mo  0.750000  0.500000  0.900000
Nb3331  Nb  0.775000  0.525000  0.925000
Nb3332  Nb  0.800000  0.500000  0.900000
W3271  W  0.825000  0.525000  0.925000
Nb3333  Nb  0.850000  0.500000  0.900000
Mo3314  Mo  0.875000  0.525000  0.925000
Mo3315  Mo  0.900000  0.500000  0.900000
W3272  W  0.925000  0.525000  0.925000
Ta3299  Ta  0.950000  0.500000  0.900000
Ta3300  Ta  0.975000  0.525000  0.925000
Mo3316  Mo  0.500000  0.550000  0.900000
W3273  W  0.525000  0.575000  0.925000
Ta3301  Ta  0.550000  0.550000  0.900000
Ta3302  Ta  0.575000  0.575000  0.925000
Ta3303  Ta  0.600000  0.550000  0.900000
W3274  W  0.625000  0.575000  0.925000
Nb3334  Nb  0.650000  0.550000  0.900000
W3275  W  0.675000  0.575000  0.925000
Ta3304  Ta  0.700000  0.550000  0.900000
W3276  W  0.725000  0.575000  0.925000
W3277  W  0.750000  0.550000  0.900000
Nb3335  Nb  0.775000  0.575000  0.925000
Ta3305  Ta  0.800000  0.550000  0.900000
W3278  W  0.825000  0.575000  0.925000
W3279  W  0.850000  0.550000  0.900000
Nb3336  Nb  0.875000  0.575000  0.925000
W3280  W  0.900000  0.550000  0.900000
Mo3317  Mo  0.925000  0.575000  0.925000
Nb3337  Nb  0.950000  0.550000  0.900000
Mo3318  Mo  0.975000  0.575000  0.925000
Mo3319  Mo  0.500000  0.600000  0.900000
Mo3320  Mo  0.525000  0.625000  0.925000
W3281  W  0.550000  0.600000  0.900000
Mo3321  Mo  0.575000  0.625000  0.925000
Ta3306  Ta  0.600000  0.600000  0.900000
Mo3322  Mo  0.625000  0.625000  0.925000
Mo3323  Mo  0.650000  0.600000  0.900000
Mo3324  Mo  0.675000  0.625000  0.925000
Nb3338  Nb  0.700000  0.600000  0.900000
Mo3325  Mo  0.725000  0.625000  0.925000
Ta3307  Ta  0.750000  0.600000  0.900000
Ta3308  Ta  0.775000  0.625000  0.925000
W3282  W  0.800000  0.600000  0.900000
Ta3309  Ta  0.825000  0.625000  0.925000
W3283  W  0.850000  0.600000  0.900000
Ta3310  Ta  0.875000  0.625000  0.925000
Mo3326  Mo  0.900000  0.600000  0.900000
Mo3327  Mo  0.925000  0.625000  0.925000
Ta3311  Ta  0.950000  0.600000  0.900000
W3284  W  0.975000  0.625000  0.925000
Ta3312  Ta  0.500000  0.650000  0.900000
Mo3328  Mo  0.550000  0.650000  0.900000
Mo3329  Mo  0.600000  0.650000  0.900000
Ta3313  Ta  0.650000  0.650000  0.900000
Ta3314  Ta  0.700000  0.650000  0.900000
Mo3330  Mo  0.750000  0.650000  0.900000
Mo3331  Mo  0.800000  0.650000  0.900000
Nb3339  Nb  0.850000  0.650000  0.900000
Nb3340  Nb  0.900000  0.650000  0.900000
Nb3341  Nb  0.950000  0.650000  0.900000
Nb3342  Nb  0.500000  0.350000  0.950000
Mo3332  Mo  0.525000  0.375000  0.975000
Ta3315  Ta  0.550000  0.350000  0.950000
Nb3343  Nb  0.575000  0.375000  0.975000
W3285  W  0.600000  0.350000  0.950000
Nb3344  Nb  0.625000  0.375000  0.975000
W3286  W  0.650000  0.350000  0.950000
Nb3345  Nb  0.675000  0.375000  0.975000
Mo3333  Mo  0.700000  0.350000  0.950000
Mo3334  Mo  0.725000  0.375000  0.975000
Nb3346  Nb  0.750000  0.350000  0.950000
W3287  W  0.775000  0.375000  0.975000
Mo3335  Mo  0.800000  0.350000  0.950000
Nb3347  Nb  0.825000  0.375000  0.975000
Ta3316  Ta  0.850000  0.350000  0.950000
Ta3317  Ta  0.875000  0.375000  0.975000
Mo3336  Mo  0.900000  0.350000  0.950000
Ta3318  Ta  0.925000  0.375000  0.975000
Nb3348  Nb  0.950000  0.350000  0.950000
Ta3319  Ta  0.975000  0.375000  0.975000
Mo3337  Mo  0.500000  0.400000  0.950000
Mo3338  Mo  0.525000  0.425000  0.975000
Nb3349  Nb  0.550000  0.400000  0.950000
Mo3339  Mo  0.575000  0.425000  0.975000
Mo3340  Mo  0.600000  0.400000  0.950000
Nb3350  Nb  0.625000  0.425000  0.975000
W3288  W  0.650000  0.400000  0.950000
Nb3351  Nb  0.675000  0.425000  0.975000
W3289  W  0.700000  0.400000  0.950000
Mo3341  Mo  0.725000  0.425000  0.975000
Nb3352  Nb  0.750000  0.400000  0.950000
Nb3353  Nb  0.775000  0.425000  0.975000
Ta3320  Ta  0.800000  0.400000  0.950000
Ta3321  Ta  0.825000  0.425000  0.975000
Mo3342  Mo  0.850000  0.400000  0.950000
W3290  W  0.875000  0.425000  0.975000
Nb3354  Nb  0.900000  0.400000  0.950000
Mo3343  Mo  0.925000  0.425000  0.975000
Nb3355  Nb  0.950000  0.400000  0.950000
Ta3322  Ta  0.975000  0.425000  0.975000
Mo3344  Mo  0.500000  0.450000  0.950000
Nb3356  Nb  0.525000  0.475000  0.975000
Nb3357  Nb  0.550000  0.450000  0.950000
Mo3345  Mo  0.575000  0.475000  0.975000
Mo3346  Mo  0.600000  0.450000  0.950000
Mo3347  Mo  0.625000  0.475000  0.975000
W3291  W  0.650000  0.450000  0.950000
Nb3358  Nb  0.675000  0.475000  0.975000
Nb3359  Nb  0.700000  0.450000  0.950000
Nb3360  Nb  0.725000  0.475000  0.975000
Nb3361  Nb  0.750000  0.450000  0.950000
W3292  W  0.775000  0.475000  0.975000
W3293  W  0.800000  0.450000  0.950000
Ta3323  Ta  0.825000  0.475000  0.975000
W3294  W  0.850000  0.450000  0.950000
W3295  W  0.875000  0.475000  0.975000
Ta3324  Ta  0.900000  0.450000  0.950000
Nb3362  Nb  0.925000  0.475000  0.975000
W3296  W  0.950000  0.450000  0.950000
Nb3363  Nb  0.975000  0.475000  0.975000
W3297  W  0.500000  0.500000  0.950000
W3298  W  0.525000  0.525000  0.975000
Mo3348  Mo  0.550000  0.500000  0.950000
Mo3349  Mo  0.575000  0.525000  0.975000
Ta3325  Ta  0.600000  0.500000  0.950000
Mo3350  Mo  0.625000  0.525000  0.975000
Nb3364  Nb  0.650000  0.500000  0.950000
Nb3365  Nb  0.675000  0.525000  0.975000
Nb3366  Nb  0.700000  0.500000  0.950000
Mo3351  Mo  0.725000  0.525000  0.975000
W3299  W  0.750000  0.500000  0.950000
Nb3367  Nb  0.775000  0.525000  0.975000
Nb3368  Nb  0.800000  0.500000  0.950000
Ta3326  Ta  0.825000  0.525000  0.975000
Ta3327  Ta  0.850000  0.500000  0.950000
Nb3369  Nb  0.875000  0.525000  0.975000
Ta3328  Ta  0.900000  0.500000  0.950000
W3300  W  0.925000  0.525000  0.975000
W3301  W  0.950000  0.500000  0.950000
Ta3329  Ta  0.975000  0.525000  0.975000
Ta3330  Ta  0.500000  0.550000  0.950000
W3302  W  0.525000  0.575000  0.975000
Ta3331  Ta  0.550000  0.550000  0.950000
Ta3332  Ta  0.575000  0.575000  0.975000
Nb3370  Nb  0.600000  0.550000  0.950000
W3303  W  0.625000  0.575000  0.975000
Nb3371  Nb  0.650000  0.550000  0.950000
Nb3372  Nb  0.675000  0.575000  0.975000
W3304  W  0.700000  0.550000  0.950000
Mo3352  Mo  0.725000  0.575000  0.975000
Nb3373  Nb  0.750000  0.550000  0.950000
W3305  W  0.775000  0.575000  0.975000
Ta3333  Ta  0.800000  0.550000  0.950000
Ta3334  Ta  0.825000  0.575000  0.975000
Mo3353  Mo  0.850000  0.550000  0.950000
W3306  W  0.875000  0.575000  0.975000
Ta3335  Ta  0.900000  0.550000  0.950000
W3307  W  0.925000  0.575000  0.975000
Mo3354  Mo  0.950000  0.550000  0.950000
Mo3355  Mo  0.975000  0.575000  0.975000
Ta3336  Ta  0.500000  0.600000  0.950000
W3308  W  0.525000  0.625000  0.975000
Mo3356  Mo  0.550000  0.600000  0.950000
Ta3337  Ta  0.575000  0.625000  0.975000
Ta3338  Ta  0.600000  0.600000  0.950000
Nb3374  Nb  0.625000  0.625000  0.975000
Mo3357  Mo  0.650000  0.600000  0.950000
Mo3358  Mo  0.675000  0.625000  0.975000
Mo3359  Mo  0.700000  0.600000  0.950000
W3309  W  0.725000  0.625000  0.975000
Ta3339  Ta  0.750000  0.600000  0.950000
Nb3375  Nb  0.775000  0.625000  0.975000
Ta3340  Ta  0.800000  0.600000  0.950000
Ta3341  Ta  0.825000  0.625000  0.975000
Mo3360  Mo  0.850000  0.600000  0.950000
Mo3361  Mo  0.875000  0.625000  0.975000
Nb3376  Nb  0.900000  0.600000  0.950000
Mo3362  Mo  0.925000  0.625000  0.975000
W3310  W  0.950000  0.600000  0.950000
Nb3377  Nb  0.975000  0.625000  0.975000
Ta3342  Ta  0.500000  0.650000  0.950000
W3311  W  0.550000  0.650000  0.950000
Mo3363  Mo  0.600000  0.650000  0.950000
W3312  W  0.650000  0.650000  0.950000
Nb3378  Nb  0.700000  0.650000  0.950000
Nb3379  Nb  0.750000  0.650000  0.950000
Nb3380  Nb  0.800000  0.650000  0.950000
Nb3381  Nb  0.850000  0.650000  0.950000
Mo3364  Mo  0.900000  0.650000  0.950000
W3313  W  0.950000  0.650000  0.950000
W3314  W  0.525000  0.675000  0.025000
Ta3343  Ta  0.575000  0.675000  0.025000
Nb3382  Nb  0.625000  0.675000  0.025000
Nb3383  Nb  0.675000  0.675000  0.025000
Nb3384  Nb  0.725000  0.675000  0.025000
Mo3365  Mo  0.775000  0.675000  0.025000
Mo3366  Mo  0.825000  0.675000  0.025000
Mo3367  Mo  0.875000  0.675000  0.025000
Mo3368  Mo  0.925000  0.675000  0.025000
W3315  W  0.975000  0.675000  0.025000
W3316  W  0.500000  0.700000  0.000000
W3317  W  0.525000  0.725000  0.025000
W3318  W  0.550000  0.700000  0.000000
Nb3385  Nb  0.575000  0.725000  0.025000
W3319  W  0.600000  0.700000  0.000000
Ta3344  Ta  0.625000  0.725000  0.025000
Ta3345  Ta  0.650000  0.700000  0.000000
Ta3346  Ta  0.675000  0.725000  0.025000
Ta3347  Ta  0.700000  0.700000  0.000000
W3320  W  0.725000  0.725000  0.025000
Ta3348  Ta  0.750000  0.700000  0.000000
W3321  W  0.775000  0.725000  0.025000
W3322  W  0.800000  0.700000  0.000000
Mo3369  Mo  0.825000  0.725000  0.025000
Ta3349  Ta  0.850000  0.700000  0.000000
W3323  W  0.875000  0.725000  0.025000
Mo3370  Mo  0.900000  0.700000  0.000000
Ta3350  Ta  0.925000  0.725000  0.025000
Mo3371  Mo  0.950000  0.700000  0.000000
Mo3372  Mo  0.975000  0.725000  0.025000
Ta3351  Ta  0.500000  0.750000  0.000000
Mo3373  Mo  0.525000  0.775000  0.025000
Nb3386  Nb  0.550000  0.750000  0.000000
W3324  W  0.575000  0.775000  0.025000
Mo3374  Mo  0.600000  0.750000  0.000000
Ta3352  Ta  0.625000  0.775000  0.025000
W3325  W  0.650000  0.750000  0.000000
Nb3387  Nb  0.675000  0.775000  0.025000
W3326  W  0.700000  0.750000  0.000000
Nb3388  Nb  0.725000  0.775000  0.025000
W3327  W  0.750000  0.750000  0.000000
Nb3389  Nb  0.775000  0.775000  0.025000
Mo3375  Mo  0.800000  0.750000  0.000000
Nb3390  Nb  0.825000  0.775000  0.025000
Ta3353  Ta  0.850000  0.750000  0.000000
W3328  W  0.875000  0.775000  0.025000
Nb3391  Nb  0.900000  0.750000  0.000000
W3329  W  0.925000  0.775000  0.025000
Ta3354  Ta  0.950000  0.750000  0.000000
Mo3376  Mo  0.975000  0.775000  0.025000
W3330  W  0.500000  0.800000  0.000000
W3331  W  0.525000  0.825000  0.025000
Ta3355  Ta  0.550000  0.800000  0.000000
Mo3377  Mo  0.575000  0.825000  0.025000
Ta3356  Ta  0.600000  0.800000  0.000000
Nb3392  Nb  0.625000  0.825000  0.025000
Ta3357  Ta  0.650000  0.800000  0.000000
W3332  W  0.675000  0.825000  0.025000
Ta3358  Ta  0.700000  0.800000  0.000000
Mo3378  Mo  0.725000  0.825000  0.025000
W3333  W  0.750000  0.800000  0.000000
Nb3393  Nb  0.775000  0.825000  0.025000
Ta3359  Ta  0.800000  0.800000  0.000000
W3334  W  0.825000  0.825000  0.025000
Ta3360  Ta  0.850000  0.800000  0.000000
Nb3394  Nb  0.875000  0.825000  0.025000
Mo3379  Mo  0.900000  0.800000  0.000000
W3335  W  0.925000  0.825000  0.025000
Mo3380  Mo  0.950000  0.800000  0.000000
W3336  W  0.975000  0.825000  0.025000
Ta3361  Ta  0.500000  0.850000  0.000000
Nb3395  Nb  0.525000  0.875000  0.025000
Mo3381  Mo  0.550000  0.850000  0.000000
W3337  W  0.575000  0.875000  0.025000
Mo3382  Mo  0.600000  0.850000  0.000000
Ta3362  Ta  0.625000  0.875000  0.025000
Ta3363  Ta  0.650000  0.850000  0.000000
W3338  W  0.675000  0.875000  0.025000
Nb3396  Nb  0.700000  0.850000  0.000000
Mo3383  Mo  0.725000  0.875000  0.025000
Ta3364  Ta  0.750000  0.850000  0.000000
Nb3397  Nb  0.775000  0.875000  0.025000
Mo3384  Mo  0.800000  0.850000  0.000000
W3339  W  0.825000  0.875000  0.025000
Ta3365  Ta  0.850000  0.850000  0.000000
Nb3398  Nb  0.875000  0.875000  0.025000
Ta3366  Ta  0.900000  0.850000  0.000000
Mo3385  Mo  0.925000  0.875000  0.025000
W3340  W  0.950000  0.850000  0.000000
Mo3386  Mo  0.975000  0.875000  0.025000
Nb3399  Nb  0.500000  0.900000  0.000000
Ta3367  Ta  0.525000  0.925000  0.025000
W3341  W  0.550000  0.900000  0.000000
Nb3400  Nb  0.575000  0.925000  0.025000
W3342  W  0.600000  0.900000  0.000000
Nb3401  Nb  0.625000  0.925000  0.025000
Ta3368  Ta  0.650000  0.900000  0.000000
Nb3402  Nb  0.675000  0.925000  0.025000
Ta3369  Ta  0.700000  0.900000  0.000000
W3343  W  0.725000  0.925000  0.025000
Mo3387  Mo  0.750000  0.900000  0.000000
Nb3403  Nb  0.775000  0.925000  0.025000
Ta3370  Ta  0.800000  0.900000  0.000000
W3344  W  0.825000  0.925000  0.025000
Ta3371  Ta  0.850000  0.900000  0.000000
Nb3404  Nb  0.875000  0.925000  0.025000
Nb3405  Nb  0.900000  0.900000  0.000000
Mo3388  Mo  0.925000  0.925000  0.025000
Ta3372  Ta  0.950000  0.900000  0.000000
Nb3406  Nb  0.975000  0.925000  0.025000
Nb3407  Nb  0.500000  0.950000  0.000000
Mo3389  Mo  0.525000  0.975000  0.025000
Mo3390  Mo  0.550000  0.950000  0.000000
W3345  W  0.575000  0.975000  0.025000
Mo3391  Mo  0.600000  0.950000  0.000000
W3346  W  0.625000  0.975000  0.025000
W3347  W  0.650000  0.950000  0.000000
Nb3408  Nb  0.675000  0.975000  0.025000
Mo3392  Mo  0.700000  0.950000  0.000000
Mo3393  Mo  0.725000  0.975000  0.025000
W3348  W  0.750000  0.950000  0.000000
Ta3373  Ta  0.775000  0.975000  0.025000
Nb3409  Nb  0.800000  0.950000  0.000000
Ta3374  Ta  0.825000  0.975000  0.025000
Ta3375  Ta  0.850000  0.950000  0.000000
Mo3394  Mo  0.875000  0.975000  0.025000
Mo3395  Mo  0.900000  0.950000  0.000000
Nb3410  Nb  0.925000  0.975000  0.025000
Nb3411  Nb  0.950000  0.950000  0.000000
Ta3376  Ta  0.975000  0.975000  0.025000
Nb3412  Nb  0.525000  0.675000  0.075000
Nb3413  Nb  0.575000  0.675000  0.075000
W3349  W  0.625000  0.675000  0.075000
W3350  W  0.675000  0.675000  0.075000
W3351  W  0.725000  0.675000  0.075000
W3352  W  0.775000  0.675000  0.075000
Ta3377  Ta  0.825000  0.675000  0.075000
Mo3396  Mo  0.875000  0.675000  0.075000
Mo3397  Mo  0.925000  0.675000  0.075000
W3353  W  0.975000  0.675000  0.075000
Ta3378  Ta  0.500000  0.700000  0.050000
W3354  W  0.525000  0.725000  0.075000
Ta3379  Ta  0.550000  0.700000  0.050000
W3355  W  0.575000  0.725000  0.075000
Ta3380  Ta  0.600000  0.700000  0.050000
Nb3414  Nb  0.625000  0.725000  0.075000
Mo3398  Mo  0.650000  0.700000  0.050000
Nb3415  Nb  0.675000  0.725000  0.075000
Mo3399  Mo  0.700000  0.700000  0.050000
Ta3381  Ta  0.725000  0.725000  0.075000
Ta3382  Ta  0.750000  0.700000  0.050000
Ta3383  Ta  0.775000  0.725000  0.075000
Nb3416  Nb  0.800000  0.700000  0.050000
Nb3417  Nb  0.825000  0.725000  0.075000
Ta3384  Ta  0.850000  0.700000  0.050000
Nb3418  Nb  0.875000  0.725000  0.075000
Ta3385  Ta  0.900000  0.700000  0.050000
W3356  W  0.925000  0.725000  0.075000
Nb3419  Nb  0.950000  0.700000  0.050000
Mo3400  Mo  0.975000  0.725000  0.075000
Nb3420  Nb  0.500000  0.750000  0.050000
W3357  W  0.525000  0.775000  0.075000
Ta3386  Ta  0.550000  0.750000  0.050000
Ta3387  Ta  0.575000  0.775000  0.075000
Nb3421  Nb  0.600000  0.750000  0.050000
Nb3422  Nb  0.625000  0.775000  0.075000
Mo3401  Mo  0.650000  0.750000  0.050000
Nb3423  Nb  0.675000  0.775000  0.075000
Mo3402  Mo  0.700000  0.750000  0.050000
Ta3388  Ta  0.725000  0.775000  0.075000
Ta3389  Ta  0.750000  0.750000  0.050000
W3358  W  0.775000  0.775000  0.075000
W3359  W  0.800000  0.750000  0.050000
Ta3390  Ta  0.825000  0.775000  0.075000
Nb3424  Nb  0.850000  0.750000  0.050000
Nb3425  Nb  0.875000  0.775000  0.075000
Ta3391  Ta  0.900000  0.750000  0.050000
Mo3403  Mo  0.925000  0.775000  0.075000
Mo3404  Mo  0.950000  0.750000  0.050000
Mo3405  Mo  0.975000  0.775000  0.075000
Nb3426  Nb  0.500000  0.800000  0.050000
W3360  W  0.525000  0.825000  0.075000
W3361  W  0.550000  0.800000  0.050000
W3362  W  0.575000  0.825000  0.075000
Mo3406  Mo  0.600000  0.800000  0.050000
Ta3392  Ta  0.625000  0.825000  0.075000
Mo3407  Mo  0.650000  0.800000  0.050000
W3363  W  0.675000  0.825000  0.075000
Nb3427  Nb  0.700000  0.800000  0.050000
Nb3428  Nb  0.725000  0.825000  0.075000
Mo3408  Mo  0.750000  0.800000  0.050000
Nb3429  Nb  0.775000  0.825000  0.075000
W3364  W  0.800000  0.800000  0.050000
Mo3409  Mo  0.825000  0.825000  0.075000
Mo3410  Mo  0.850000  0.800000  0.050000
Nb3430  Nb  0.875000  0.825000  0.075000
Ta3393  Ta  0.900000  0.800000  0.050000
Mo3411  Mo  0.925000  0.825000  0.075000
Mo3412  Mo  0.950000  0.800000  0.050000
W3365  W  0.975000  0.825000  0.075000
W3366  W  0.500000  0.850000  0.050000
Ta3394  Ta  0.525000  0.875000  0.075000
Mo3413  Mo  0.550000  0.850000  0.050000
Mo3414  Mo  0.575000  0.875000  0.075000
Nb3431  Nb  0.600000  0.850000  0.050000
W3367  W  0.625000  0.875000  0.075000
Nb3432  Nb  0.650000  0.850000  0.050000
Ta3395  Ta  0.675000  0.875000  0.075000
Mo3415  Mo  0.700000  0.850000  0.050000
Mo3416  Mo  0.725000  0.875000  0.075000
Mo3417  Mo  0.750000  0.850000  0.050000
Nb3433  Nb  0.775000  0.875000  0.075000
W3368  W  0.800000  0.850000  0.050000
Nb3434  Nb  0.825000  0.875000  0.075000
Mo3418  Mo  0.850000  0.850000  0.050000
Mo3419  Mo  0.875000  0.875000  0.075000
Nb3435  Nb  0.900000  0.850000  0.050000
Ta3396  Ta  0.925000  0.875000  0.075000
Mo3420  Mo  0.950000  0.850000  0.050000
W3369  W  0.975000  0.875000  0.075000
Nb3436  Nb  0.500000  0.900000  0.050000
Nb3437  Nb  0.525000  0.925000  0.075000
Nb3438  Nb  0.550000  0.900000  0.050000
Ta3397  Ta  0.575000  0.925000  0.075000
W3370  W  0.600000  0.900000  0.050000
W3371  W  0.625000  0.925000  0.075000
Ta3398  Ta  0.650000  0.900000  0.050000
W3372  W  0.675000  0.925000  0.075000
Ta3399  Ta  0.700000  0.900000  0.050000
Ta3400  Ta  0.725000  0.925000  0.075000
Ta3401  Ta  0.750000  0.900000  0.050000
W3373  W  0.775000  0.925000  0.075000
Ta3402  Ta  0.800000  0.900000  0.050000
Nb3439  Nb  0.825000  0.925000  0.075000
W3374  W  0.850000  0.900000  0.050000
Ta3403  Ta  0.875000  0.925000  0.075000
Ta3404  Ta  0.900000  0.900000  0.050000
Ta3405  Ta  0.925000  0.925000  0.075000
Nb3440  Nb  0.950000  0.900000  0.050000
Nb3441  Nb  0.975000  0.925000  0.075000
Mo3421  Mo  0.500000  0.950000  0.050000
W3375  W  0.525000  0.975000  0.075000
Nb3442  Nb  0.550000  0.950000  0.050000
W3376  W  0.575000  0.975000  0.075000
Nb3443  Nb  0.600000  0.950000  0.050000
Ta3406  Ta  0.625000  0.975000  0.075000
W3377  W  0.650000  0.950000  0.050000
Ta3407  Ta  0.675000  0.975000  0.075000
Mo3422  Mo  0.700000  0.950000  0.050000
Mo3423  Mo  0.725000  0.975000  0.075000
Mo3424  Mo  0.750000  0.950000  0.050000
Mo3425  Mo  0.775000  0.975000  0.075000
W3378  W  0.800000  0.950000  0.050000
W3379  W  0.825000  0.975000  0.075000
Mo3426  Mo  0.850000  0.950000  0.050000
Mo3427  Mo  0.875000  0.975000  0.075000
Mo3428  Mo  0.900000  0.950000  0.050000
Nb3444  Nb  0.925000  0.975000  0.075000
Nb3445  Nb  0.950000  0.950000  0.050000
Mo3429  Mo  0.975000  0.975000  0.075000
Mo3430  Mo  0.525000  0.675000  0.125000
Nb3446  Nb  0.575000  0.675000  0.125000
W3380  W  0.625000  0.675000  0.125000
W3381  W  0.675000  0.675000  0.125000
Nb3447  Nb  0.725000  0.675000  0.125000
W3382  W  0.775000  0.675000  0.125000
W3383  W  0.825000  0.675000  0.125000
Mo3431  Mo  0.875000  0.675000  0.125000
Nb3448  Nb  0.925000  0.675000  0.125000
W3384  W  0.975000  0.675000  0.125000
W3385  W  0.500000  0.700000  0.100000
Ta3408  Ta  0.525000  0.725000  0.125000
W3386  W  0.550000  0.700000  0.100000
Mo3432  Mo  0.575000  0.725000  0.125000
W3387  W  0.600000  0.700000  0.100000
Ta3409  Ta  0.625000  0.725000  0.125000
Mo3433  Mo  0.650000  0.700000  0.100000
Ta3410  Ta  0.675000  0.725000  0.125000
Ta3411  Ta  0.700000  0.700000  0.100000
Nb3449  Nb  0.725000  0.725000  0.125000
W3388  W  0.750000  0.700000  0.100000
Mo3434  Mo  0.775000  0.725000  0.125000
Mo3435  Mo  0.800000  0.700000  0.100000
W3389  W  0.825000  0.725000  0.125000
Ta3412  Ta  0.850000  0.700000  0.100000
Ta3413  Ta  0.875000  0.725000  0.125000
Ta3414  Ta  0.900000  0.700000  0.100000
Mo3436  Mo  0.925000  0.725000  0.125000
Nb3450  Nb  0.950000  0.700000  0.100000
Ta3415  Ta  0.975000  0.725000  0.125000
Nb3451  Nb  0.500000  0.750000  0.100000
W3390  W  0.525000  0.775000  0.125000
Mo3437  Mo  0.550000  0.750000  0.100000
Mo3438  Mo  0.575000  0.775000  0.125000
Ta3416  Ta  0.600000  0.750000  0.100000
Nb3452  Nb  0.625000  0.775000  0.125000
Mo3439  Mo  0.650000  0.750000  0.100000
Nb3453  Nb  0.675000  0.775000  0.125000
Mo3440  Mo  0.700000  0.750000  0.100000
Ta3417  Ta  0.725000  0.775000  0.125000
Nb3454  Nb  0.750000  0.750000  0.100000
Ta3418  Ta  0.775000  0.775000  0.125000
Nb3455  Nb  0.800000  0.750000  0.100000
Nb3456  Nb  0.825000  0.775000  0.125000
Nb3457  Nb  0.850000  0.750000  0.100000
Mo3441  Mo  0.875000  0.775000  0.125000
Mo3442  Mo  0.900000  0.750000  0.100000
Mo3443  Mo  0.925000  0.775000  0.125000
Mo3444  Mo  0.950000  0.750000  0.100000
W3391  W  0.975000  0.775000  0.125000
Nb3458  Nb  0.500000  0.800000  0.100000
Mo3445  Mo  0.525000  0.825000  0.125000
Nb3459  Nb  0.550000  0.800000  0.100000
W3392  W  0.575000  0.825000  0.125000
Nb3460  Nb  0.600000  0.800000  0.100000
Nb3461  Nb  0.625000  0.825000  0.125000
Mo3446  Mo  0.650000  0.800000  0.100000
Nb3462  Nb  0.675000  0.825000  0.125000
W3393  W  0.700000  0.800000  0.100000
Ta3419  Ta  0.725000  0.825000  0.125000
Mo3447  Mo  0.750000  0.800000  0.100000
Nb3463  Nb  0.775000  0.825000  0.125000
Mo3448  Mo  0.800000  0.800000  0.100000
Ta3420  Ta  0.825000  0.825000  0.125000
Mo3449  Mo  0.850000  0.800000  0.100000
Mo3450  Mo  0.875000  0.825000  0.125000
Nb3464  Nb  0.900000  0.800000  0.100000
W3394  W  0.925000  0.825000  0.125000
Mo3451  Mo  0.950000  0.800000  0.100000
W3395  W  0.975000  0.825000  0.125000
Ta3421  Ta  0.500000  0.850000  0.100000
Mo3452  Mo  0.525000  0.875000  0.125000
Nb3465  Nb  0.550000  0.850000  0.100000
Nb3466  Nb  0.575000  0.875000  0.125000
Nb3467  Nb  0.600000  0.850000  0.100000
Mo3453  Mo  0.625000  0.875000  0.125000
W3396  W  0.650000  0.850000  0.100000
W3397  W  0.675000  0.875000  0.125000
Mo3454  Mo  0.700000  0.850000  0.100000
Nb3468  Nb  0.725000  0.875000  0.125000
Mo3455  Mo  0.750000  0.850000  0.100000
Ta3422  Ta  0.775000  0.875000  0.125000
Mo3456  Mo  0.800000  0.850000  0.100000
Mo3457  Mo  0.825000  0.875000  0.125000
W3398  W  0.850000  0.850000  0.100000
Nb3469  Nb  0.875000  0.875000  0.125000
Ta3423  Ta  0.900000  0.850000  0.100000
W3399  W  0.925000  0.875000  0.125000
W3400  W  0.950000  0.850000  0.100000
Mo3458  Mo  0.975000  0.875000  0.125000
W3401  W  0.500000  0.900000  0.100000
Nb3470  Nb  0.525000  0.925000  0.125000
W3402  W  0.550000  0.900000  0.100000
Nb3471  Nb  0.575000  0.925000  0.125000
Ta3424  Ta  0.600000  0.900000  0.100000
W3403  W  0.625000  0.925000  0.125000
W3404  W  0.650000  0.900000  0.100000
Ta3425  Ta  0.675000  0.925000  0.125000
Mo3459  Mo  0.700000  0.900000  0.100000
Nb3472  Nb  0.725000  0.925000  0.125000
Nb3473  Nb  0.750000  0.900000  0.100000
W3405  W  0.775000  0.925000  0.125000
W3406  W  0.800000  0.900000  0.100000
Mo3460  Mo  0.825000  0.925000  0.125000
Nb3474  Nb  0.850000  0.900000  0.100000
Mo3461  Mo  0.875000  0.925000  0.125000
Nb3475  Nb  0.900000  0.900000  0.100000
W3407  W  0.925000  0.925000  0.125000
Ta3426  Ta  0.950000  0.900000  0.100000
Mo3462  Mo  0.975000  0.925000  0.125000
Ta3427  Ta  0.500000  0.950000  0.100000
W3408  W  0.525000  0.975000  0.125000
W3409  W  0.550000  0.950000  0.100000
W3410  W  0.575000  0.975000  0.125000
Ta3428  Ta  0.600000  0.950000  0.100000
Mo3463  Mo  0.625000  0.975000  0.125000
Mo3464  Mo  0.650000  0.950000  0.100000
W3411  W  0.675000  0.975000  0.125000
Nb3476  Nb  0.700000  0.950000  0.100000
Ta3429  Ta  0.725000  0.975000  0.125000
Ta3430  Ta  0.750000  0.950000  0.100000
W3412  W  0.775000  0.975000  0.125000
Ta3431  Ta  0.800000  0.950000  0.100000
Ta3432  Ta  0.825000  0.975000  0.125000
Nb3477  Nb  0.850000  0.950000  0.100000
W3413  W  0.875000  0.975000  0.125000
W3414  W  0.900000  0.950000  0.100000
Ta3433  Ta  0.925000  0.975000  0.125000
Mo3465  Mo  0.950000  0.950000  0.100000
W3415  W  0.975000  0.975000  0.125000
W3416  W  0.525000  0.675000  0.175000
Mo3466  Mo  0.575000  0.675000  0.175000
W3417  W  0.625000  0.675000  0.175000
Ta3434  Ta  0.675000  0.675000  0.175000
Nb3478  Nb  0.725000  0.675000  0.175000
Mo3467  Mo  0.775000  0.675000  0.175000
Mo3468  Mo  0.825000  0.675000  0.175000
Nb3479  Nb  0.875000  0.675000  0.175000
W3418  W  0.925000  0.675000  0.175000
W3419  W  0.975000  0.675000  0.175000
W3420  W  0.500000  0.700000  0.150000
Mo3469  Mo  0.525000  0.725000  0.175000
Ta3435  Ta  0.550000  0.700000  0.150000
W3421  W  0.575000  0.725000  0.175000
Mo3470  Mo  0.600000  0.700000  0.150000
W3422  W  0.625000  0.725000  0.175000
W3423  W  0.650000  0.700000  0.150000
Nb3480  Nb  0.675000  0.725000  0.175000
Mo3471  Mo  0.700000  0.700000  0.150000
Mo3472  Mo  0.725000  0.725000  0.175000
W3424  W  0.750000  0.700000  0.150000
W3425  W  0.775000  0.725000  0.175000
Mo3473  Mo  0.800000  0.700000  0.150000
Mo3474  Mo  0.825000  0.725000  0.175000
Mo3475  Mo  0.850000  0.700000  0.150000
Mo3476  Mo  0.875000  0.725000  0.175000
Ta3436  Ta  0.900000  0.700000  0.150000
W3426  W  0.925000  0.725000  0.175000
W3427  W  0.950000  0.700000  0.150000
Mo3477  Mo  0.975000  0.725000  0.175000
W3428  W  0.500000  0.750000  0.150000
Mo3478  Mo  0.525000  0.775000  0.175000
Ta3437  Ta  0.550000  0.750000  0.150000
Ta3438  Ta  0.575000  0.775000  0.175000
Mo3479  Mo  0.600000  0.750000  0.150000
Mo3480  Mo  0.625000  0.775000  0.175000
Nb3481  Nb  0.650000  0.750000  0.150000
Nb3482  Nb  0.675000  0.775000  0.175000
W3429  W  0.700000  0.750000  0.150000
Ta3439  Ta  0.725000  0.775000  0.175000
Ta3440  Ta  0.750000  0.750000  0.150000
Mo3481  Mo  0.775000  0.775000  0.175000
Mo3482  Mo  0.800000  0.750000  0.150000
Ta3441  Ta  0.825000  0.775000  0.175000
Ta3442  Ta  0.850000  0.750000  0.150000
Nb3483  Nb  0.875000  0.775000  0.175000
W3430  W  0.900000  0.750000  0.150000
Ta3443  Ta  0.925000  0.775000  0.175000
Mo3483  Mo  0.950000  0.750000  0.150000
Ta3444  Ta  0.975000  0.775000  0.175000
Nb3484  Nb  0.500000  0.800000  0.150000
Mo3484  Mo  0.525000  0.825000  0.175000
Mo3485  Mo  0.550000  0.800000  0.150000
Mo3486  Mo  0.575000  0.825000  0.175000
Mo3487  Mo  0.600000  0.800000  0.150000
W3431  W  0.625000  0.825000  0.175000
Ta3445  Ta  0.650000  0.800000  0.150000
Nb3485  Nb  0.675000  0.825000  0.175000
W3432  W  0.700000  0.800000  0.150000
Mo3488  Mo  0.725000  0.825000  0.175000
W3433  W  0.750000  0.800000  0.150000
Mo3489  Mo  0.775000  0.825000  0.175000
Mo3490  Mo  0.800000  0.800000  0.150000
W3434  W  0.825000  0.825000  0.175000
Nb3486  Nb  0.850000  0.800000  0.150000
Mo3491  Mo  0.875000  0.825000  0.175000
W3435  W  0.900000  0.800000  0.150000
Ta3446  Ta  0.925000  0.825000  0.175000
Ta3447  Ta  0.950000  0.800000  0.150000
W3436  W  0.975000  0.825000  0.175000
W3437  W  0.500000  0.850000  0.150000
Ta3448  Ta  0.525000  0.875000  0.175000
Nb3487  Nb  0.550000  0.850000  0.150000
W3438  W  0.575000  0.875000  0.175000
Ta3449  Ta  0.600000  0.850000  0.150000
Nb3488  Nb  0.625000  0.875000  0.175000
W3439  W  0.650000  0.850000  0.150000
W3440  W  0.675000  0.875000  0.175000
W3441  W  0.700000  0.850000  0.150000
Ta3450  Ta  0.725000  0.875000  0.175000
W3442  W  0.750000  0.850000  0.150000
W3443  W  0.775000  0.875000  0.175000
Mo3492  Mo  0.800000  0.850000  0.150000
Ta3451  Ta  0.825000  0.875000  0.175000
Mo3493  Mo  0.850000  0.850000  0.150000
W3444  W  0.875000  0.875000  0.175000
Nb3489  Nb  0.900000  0.850000  0.150000
Nb3490  Nb  0.925000  0.875000  0.175000
Ta3452  Ta  0.950000  0.850000  0.150000
Ta3453  Ta  0.975000  0.875000  0.175000
Nb3491  Nb  0.500000  0.900000  0.150000
W3445  W  0.525000  0.925000  0.175000
Nb3492  Nb  0.550000  0.900000  0.150000
Mo3494  Mo  0.575000  0.925000  0.175000
W3446  W  0.600000  0.900000  0.150000
W3447  W  0.625000  0.925000  0.175000
Nb3493  Nb  0.650000  0.900000  0.150000
Nb3494  Nb  0.675000  0.925000  0.175000
Ta3454  Ta  0.700000  0.900000  0.150000
Mo3495  Mo  0.725000  0.925000  0.175000
Ta3455  Ta  0.750000  0.900000  0.150000
W3448  W  0.775000  0.925000  0.175000
W3449  W  0.800000  0.900000  0.150000
Nb3495  Nb  0.825000  0.925000  0.175000
W3450  W  0.850000  0.900000  0.150000
Mo3496  Mo  0.875000  0.925000  0.175000
W3451  W  0.900000  0.900000  0.150000
W3452  W  0.925000  0.925000  0.175000
Mo3497  Mo  0.950000  0.900000  0.150000
W3453  W  0.975000  0.925000  0.175000
W3454  W  0.500000  0.950000  0.150000
Ta3456  Ta  0.525000  0.975000  0.175000
Nb3496  Nb  0.550000  0.950000  0.150000
W3455  W  0.575000  0.975000  0.175000
Nb3497  Nb  0.600000  0.950000  0.150000
Nb3498  Nb  0.625000  0.975000  0.175000
Ta3457  Ta  0.650000  0.950000  0.150000
Mo3498  Mo  0.675000  0.975000  0.175000
Nb3499  Nb  0.700000  0.950000  0.150000
Nb3500  Nb  0.725000  0.975000  0.175000
W3456  W  0.750000  0.950000  0.150000
Mo3499  Mo  0.775000  0.975000  0.175000
Mo3500  Mo  0.800000  0.950000  0.150000
Mo3501  Mo  0.825000  0.975000  0.175000
W3457  W  0.850000  0.950000  0.150000
W3458  W  0.875000  0.975000  0.175000
Ta3458  Ta  0.900000  0.950000  0.150000
Nb3501  Nb  0.925000  0.975000  0.175000
W3459  W  0.950000  0.950000  0.150000
Nb3502  Nb  0.975000  0.975000  0.175000
W3460  W  0.525000  0.675000  0.225000
Nb3503  Nb  0.575000  0.675000  0.225000
Nb3504  Nb  0.625000  0.675000  0.225000
Nb3505  Nb  0.675000  0.675000  0.225000
Ta3459  Ta  0.725000  0.675000  0.225000
Mo3502  Mo  0.775000  0.675000  0.225000
Mo3503  Mo  0.825000  0.675000  0.225000
Ta3460  Ta  0.875000  0.675000  0.225000
Nb3506  Nb  0.925000  0.675000  0.225000
Ta3461  Ta  0.975000  0.675000  0.225000
Mo3504  Mo  0.500000  0.700000  0.200000
W3461  W  0.525000  0.725000  0.225000
Mo3505  Mo  0.550000  0.700000  0.200000
Mo3506  Mo  0.575000  0.725000  0.225000
Nb3507  Nb  0.600000  0.700000  0.200000
Nb3508  Nb  0.625000  0.725000  0.225000
Ta3462  Ta  0.650000  0.700000  0.200000
Mo3507  Mo  0.675000  0.725000  0.225000
Nb3509  Nb  0.700000  0.700000  0.200000
W3462  W  0.725000  0.725000  0.225000
W3463  W  0.750000  0.700000  0.200000
W3464  W  0.775000  0.725000  0.225000
Ta3463  Ta  0.800000  0.700000  0.200000
Mo3508  Mo  0.825000  0.725000  0.225000
Mo3509  Mo  0.850000  0.700000  0.200000
Ta3464  Ta  0.875000  0.725000  0.225000
Ta3465  Ta  0.900000  0.700000  0.200000
Ta3466  Ta  0.925000  0.725000  0.225000
Ta3467  Ta  0.950000  0.700000  0.200000
W3465  W  0.975000  0.725000  0.225000
Ta3468  Ta  0.500000  0.750000  0.200000
Ta3469  Ta  0.525000  0.775000  0.225000
Ta3470  Ta  0.550000  0.750000  0.200000
Mo3510  Mo  0.575000  0.775000  0.225000
W3466  W  0.600000  0.750000  0.200000
Mo3511  Mo  0.625000  0.775000  0.225000
Mo3512  Mo  0.650000  0.750000  0.200000
Ta3471  Ta  0.675000  0.775000  0.225000
Mo3513  Mo  0.700000  0.750000  0.200000
Nb3510  Nb  0.725000  0.775000  0.225000
Mo3514  Mo  0.750000  0.750000  0.200000
Mo3515  Mo  0.775000  0.775000  0.225000
Mo3516  Mo  0.800000  0.750000  0.200000
Nb3511  Nb  0.825000  0.775000  0.225000
Ta3472  Ta  0.850000  0.750000  0.200000
Ta3473  Ta  0.875000  0.775000  0.225000
W3467  W  0.900000  0.750000  0.200000
Nb3512  Nb  0.925000  0.775000  0.225000
Ta3474  Ta  0.950000  0.750000  0.200000
Ta3475  Ta  0.975000  0.775000  0.225000
Nb3513  Nb  0.500000  0.800000  0.200000
W3468  W  0.525000  0.825000  0.225000
W3469  W  0.550000  0.800000  0.200000
Ta3476  Ta  0.575000  0.825000  0.225000
Ta3477  Ta  0.600000  0.800000  0.200000
W3470  W  0.625000  0.825000  0.225000
W3471  W  0.650000  0.800000  0.200000
Mo3517  Mo  0.675000  0.825000  0.225000
W3472  W  0.700000  0.800000  0.200000
Ta3478  Ta  0.725000  0.825000  0.225000
Mo3518  Mo  0.750000  0.800000  0.200000
Nb3514  Nb  0.775000  0.825000  0.225000
Ta3479  Ta  0.800000  0.800000  0.200000
W3473  W  0.825000  0.825000  0.225000
Mo3519  Mo  0.850000  0.800000  0.200000
Ta3480  Ta  0.875000  0.825000  0.225000
Mo3520  Mo  0.900000  0.800000  0.200000
W3474  W  0.925000  0.825000  0.225000
Mo3521  Mo  0.950000  0.800000  0.200000
Nb3515  Nb  0.975000  0.825000  0.225000
W3475  W  0.500000  0.850000  0.200000
Ta3481  Ta  0.525000  0.875000  0.225000
Ta3482  Ta  0.550000  0.850000  0.200000
Ta3483  Ta  0.575000  0.875000  0.225000
Mo3522  Mo  0.600000  0.850000  0.200000
W3476  W  0.625000  0.875000  0.225000
Nb3516  Nb  0.650000  0.850000  0.200000
Mo3523  Mo  0.675000  0.875000  0.225000
Ta3484  Ta  0.700000  0.850000  0.200000
Nb3517  Nb  0.725000  0.875000  0.225000
Nb3518  Nb  0.750000  0.850000  0.200000
W3477  W  0.775000  0.875000  0.225000
Nb3519  Nb  0.800000  0.850000  0.200000
Mo3524  Mo  0.825000  0.875000  0.225000
Ta3485  Ta  0.850000  0.850000  0.200000
Ta3486  Ta  0.875000  0.875000  0.225000
Ta3487  Ta  0.900000  0.850000  0.200000
Ta3488  Ta  0.925000  0.875000  0.225000
W3478  W  0.950000  0.850000  0.200000
Nb3520  Nb  0.975000  0.875000  0.225000
W3479  W  0.500000  0.900000  0.200000
Mo3525  Mo  0.525000  0.925000  0.225000
W3480  W  0.550000  0.900000  0.200000
W3481  W  0.575000  0.925000  0.225000
W3482  W  0.600000  0.900000  0.200000
Mo3526  Mo  0.625000  0.925000  0.225000
Nb3521  Nb  0.650000  0.900000  0.200000
Nb3522  Nb  0.675000  0.925000  0.225000
Ta3489  Ta  0.700000  0.900000  0.200000
Nb3523  Nb  0.725000  0.925000  0.225000
W3483  W  0.750000  0.900000  0.200000
Mo3527  Mo  0.775000  0.925000  0.225000
Mo3528  Mo  0.800000  0.900000  0.200000
Mo3529  Mo  0.825000  0.925000  0.225000
Nb3524  Nb  0.850000  0.900000  0.200000
W3484  W  0.875000  0.925000  0.225000
Nb3525  Nb  0.900000  0.900000  0.200000
W3485  W  0.925000  0.925000  0.225000
W3486  W  0.950000  0.900000  0.200000
W3487  W  0.975000  0.925000  0.225000
Ta3490  Ta  0.500000  0.950000  0.200000
Ta3491  Ta  0.525000  0.975000  0.225000
Ta3492  Ta  0.550000  0.950000  0.200000
Mo3530  Mo  0.575000  0.975000  0.225000
W3488  W  0.600000  0.950000  0.200000
Nb3526  Nb  0.625000  0.975000  0.225000
Mo3531  Mo  0.650000  0.950000  0.200000
W3489  W  0.675000  0.975000  0.225000
Nb3527  Nb  0.700000  0.950000  0.200000
Ta3493  Ta  0.725000  0.975000  0.225000
Nb3528  Nb  0.750000  0.950000  0.200000
W3490  W  0.775000  0.975000  0.225000
W3491  W  0.800000  0.950000  0.200000
Ta3494  Ta  0.825000  0.975000  0.225000
Mo3532  Mo  0.850000  0.950000  0.200000
Mo3533  Mo  0.875000  0.975000  0.225000
Nb3529  Nb  0.900000  0.950000  0.200000
W3492  W  0.925000  0.975000  0.225000
W3493  W  0.950000  0.950000  0.200000
W3494  W  0.975000  0.975000  0.225000
W3495  W  0.525000  0.675000  0.275000
Ta3495  Ta  0.575000  0.675000  0.275000
Nb3530  Nb  0.625000  0.675000  0.275000
Mo3534  Mo  0.675000  0.675000  0.275000
Mo3535  Mo  0.725000  0.675000  0.275000
Nb3531  Nb  0.775000  0.675000  0.275000
W3496  W  0.825000  0.675000  0.275000
Ta3496  Ta  0.875000  0.675000  0.275000
Ta3497  Ta  0.925000  0.675000  0.275000
W3497  W  0.975000  0.675000  0.275000
Mo3536  Mo  0.500000  0.700000  0.250000
W3498  W  0.525000  0.725000  0.275000
Mo3537  Mo  0.550000  0.700000  0.250000
Mo3538  Mo  0.575000  0.725000  0.275000
W3499  W  0.600000  0.700000  0.250000
W3500  W  0.625000  0.725000  0.275000
W3501  W  0.650000  0.700000  0.250000
W3502  W  0.675000  0.725000  0.275000
Nb3532  Nb  0.700000  0.700000  0.250000
Ta3498  Ta  0.725000  0.725000  0.275000
W3503  W  0.750000  0.700000  0.250000
W3504  W  0.775000  0.725000  0.275000
W3505  W  0.800000  0.700000  0.250000
W3506  W  0.825000  0.725000  0.275000
W3507  W  0.850000  0.700000  0.250000
Nb3533  Nb  0.875000  0.725000  0.275000
Nb3534  Nb  0.900000  0.700000  0.250000
Mo3539  Mo  0.925000  0.725000  0.275000
Mo3540  Mo  0.950000  0.700000  0.250000
Ta3499  Ta  0.975000  0.725000  0.275000
Ta3500  Ta  0.500000  0.750000  0.250000
W3508  W  0.525000  0.775000  0.275000
W3509  W  0.550000  0.750000  0.250000
W3510  W  0.575000  0.775000  0.275000
Ta3501  Ta  0.600000  0.750000  0.250000
Ta3502  Ta  0.625000  0.775000  0.275000
W3511  W  0.650000  0.750000  0.250000
Ta3503  Ta  0.675000  0.775000  0.275000
Ta3504  Ta  0.700000  0.750000  0.250000
Ta3505  Ta  0.725000  0.775000  0.275000
Ta3506  Ta  0.750000  0.750000  0.250000
W3512  W  0.775000  0.775000  0.275000
Mo3541  Mo  0.800000  0.750000  0.250000
Mo3542  Mo  0.825000  0.775000  0.275000
W3513  W  0.850000  0.750000  0.250000
W3514  W  0.875000  0.775000  0.275000
Ta3507  Ta  0.900000  0.750000  0.250000
Mo3543  Mo  0.925000  0.775000  0.275000
Mo3544  Mo  0.950000  0.750000  0.250000
W3515  W  0.975000  0.775000  0.275000
Nb3535  Nb  0.500000  0.800000  0.250000
W3516  W  0.525000  0.825000  0.275000
Nb3536  Nb  0.550000  0.800000  0.250000
W3517  W  0.575000  0.825000  0.275000
Mo3545  Mo  0.600000  0.800000  0.250000
Mo3546  Mo  0.625000  0.825000  0.275000
Ta3508  Ta  0.650000  0.800000  0.250000
W3518  W  0.675000  0.825000  0.275000
Ta3509  Ta  0.700000  0.800000  0.250000
Mo3547  Mo  0.725000  0.825000  0.275000
Ta3510  Ta  0.750000  0.800000  0.250000
Mo3548  Mo  0.775000  0.825000  0.275000
Ta3511  Ta  0.800000  0.800000  0.250000
Ta3512  Ta  0.825000  0.825000  0.275000
Nb3537  Nb  0.850000  0.800000  0.250000
Nb3538  Nb  0.875000  0.825000  0.275000
Ta3513  Ta  0.900000  0.800000  0.250000
Ta3514  Ta  0.925000  0.825000  0.275000
Nb3539  Nb  0.950000  0.800000  0.250000
Nb3540  Nb  0.975000  0.825000  0.275000
Mo3549  Mo  0.500000  0.850000  0.250000
Ta3515  Ta  0.525000  0.875000  0.275000
Mo3550  Mo  0.550000  0.850000  0.250000
W3519  W  0.575000  0.875000  0.275000
Ta3516  Ta  0.600000  0.850000  0.250000
W3520  W  0.625000  0.875000  0.275000
Ta3517  Ta  0.650000  0.850000  0.250000
Nb3541  Nb  0.675000  0.875000  0.275000
W3521  W  0.700000  0.850000  0.250000
W3522  W  0.725000  0.875000  0.275000
Nb3542  Nb  0.750000  0.850000  0.250000
W3523  W  0.775000  0.875000  0.275000
Ta3518  Ta  0.800000  0.850000  0.250000
Mo3551  Mo  0.825000  0.875000  0.275000
W3524  W  0.850000  0.850000  0.250000
Nb3543  Nb  0.875000  0.875000  0.275000
W3525  W  0.900000  0.850000  0.250000
W3526  W  0.925000  0.875000  0.275000
Nb3544  Nb  0.950000  0.850000  0.250000
Nb3545  Nb  0.975000  0.875000  0.275000
Mo3552  Mo  0.500000  0.900000  0.250000
Nb3546  Nb  0.525000  0.925000  0.275000
Ta3519  Ta  0.550000  0.900000  0.250000
Ta3520  Ta  0.575000  0.925000  0.275000
W3527  W  0.600000  0.900000  0.250000
Mo3553  Mo  0.625000  0.925000  0.275000
W3528  W  0.650000  0.900000  0.250000
Ta3521  Ta  0.675000  0.925000  0.275000
W3529  W  0.700000  0.900000  0.250000
W3530  W  0.725000  0.925000  0.275000
Mo3554  Mo  0.750000  0.900000  0.250000
Ta3522  Ta  0.775000  0.925000  0.275000
Ta3523  Ta  0.800000  0.900000  0.250000
Nb3547  Nb  0.825000  0.925000  0.275000
W3531  W  0.850000  0.900000  0.250000
Mo3555  Mo  0.875000  0.925000  0.275000
W3532  W  0.900000  0.900000  0.250000
Ta3524  Ta  0.925000  0.925000  0.275000
Ta3525  Ta  0.950000  0.900000  0.250000
Mo3556  Mo  0.975000  0.925000  0.275000
Ta3526  Ta  0.500000  0.950000  0.250000
Nb3548  Nb  0.525000  0.975000  0.275000
W3533  W  0.550000  0.950000  0.250000
Mo3557  Mo  0.575000  0.975000  0.275000
Ta3527  Ta  0.600000  0.950000  0.250000
Nb3549  Nb  0.625000  0.975000  0.275000
Ta3528  Ta  0.650000  0.950000  0.250000
Ta3529  Ta  0.675000  0.975000  0.275000
Mo3558  Mo  0.700000  0.950000  0.250000
Ta3530  Ta  0.725000  0.975000  0.275000
Mo3559  Mo  0.750000  0.950000  0.250000
Mo3560  Mo  0.775000  0.975000  0.275000
Nb3550  Nb  0.800000  0.950000  0.250000
Ta3531  Ta  0.825000  0.975000  0.275000
Mo3561  Mo  0.850000  0.950000  0.250000
Nb3551  Nb  0.875000  0.975000  0.275000
Ta3532  Ta  0.900000  0.950000  0.250000
Mo3562  Mo  0.925000  0.975000  0.275000
Nb3552  Nb  0.950000  0.950000  0.250000
Mo3563  Mo  0.975000  0.975000  0.275000
Ta3533  Ta  0.525000  0.675000  0.325000
Nb3553  Nb  0.575000  0.675000  0.325000
Mo3564  Mo  0.625000  0.675000  0.325000
Nb3554  Nb  0.675000  0.675000  0.325000
Nb3555  Nb  0.725000  0.675000  0.325000
W3534  W  0.775000  0.675000  0.325000
Mo3565  Mo  0.825000  0.675000  0.325000
W3535  W  0.875000  0.675000  0.325000
W3536  W  0.925000  0.675000  0.325000
Nb3556  Nb  0.975000  0.675000  0.325000
Nb3557  Nb  0.500000  0.700000  0.300000
Mo3566  Mo  0.525000  0.725000  0.325000
Nb3558  Nb  0.550000  0.700000  0.300000
W3537  W  0.575000  0.725000  0.325000
Mo3567  Mo  0.600000  0.700000  0.300000
Mo3568  Mo  0.625000  0.725000  0.325000
Nb3559  Nb  0.650000  0.700000  0.300000
Nb3560  Nb  0.675000  0.725000  0.325000
W3538  W  0.700000  0.700000  0.300000
W3539  W  0.725000  0.725000  0.325000
Mo3569  Mo  0.750000  0.700000  0.300000
W3540  W  0.775000  0.725000  0.325000
Mo3570  Mo  0.800000  0.700000  0.300000
Mo3571  Mo  0.825000  0.725000  0.325000
W3541  W  0.850000  0.700000  0.300000
Ta3534  Ta  0.875000  0.725000  0.325000
Mo3572  Mo  0.900000  0.700000  0.300000
Nb3561  Nb  0.925000  0.725000  0.325000
Ta3535  Ta  0.950000  0.700000  0.300000
W3542  W  0.975000  0.725000  0.325000
Ta3536  Ta  0.500000  0.750000  0.300000
Nb3562  Nb  0.525000  0.775000  0.325000
W3543  W  0.550000  0.750000  0.300000
Ta3537  Ta  0.575000  0.775000  0.325000
Nb3563  Nb  0.600000  0.750000  0.300000
Nb3564  Nb  0.625000  0.775000  0.325000
Ta3538  Ta  0.650000  0.750000  0.300000
Ta3539  Ta  0.675000  0.775000  0.325000
Mo3573  Mo  0.700000  0.750000  0.300000
Mo3574  Mo  0.725000  0.775000  0.325000
Nb3565  Nb  0.750000  0.750000  0.300000
W3544  W  0.775000  0.775000  0.325000
Mo3575  Mo  0.800000  0.750000  0.300000
Mo3576  Mo  0.825000  0.775000  0.325000
Ta3540  Ta  0.850000  0.750000  0.300000
Mo3577  Mo  0.875000  0.775000  0.325000
W3545  W  0.900000  0.750000  0.300000
W3546  W  0.925000  0.775000  0.325000
W3547  W  0.950000  0.750000  0.300000
Nb3566  Nb  0.975000  0.775000  0.325000
Ta3541  Ta  0.500000  0.800000  0.300000
Ta3542  Ta  0.525000  0.825000  0.325000
Nb3567  Nb  0.550000  0.800000  0.300000
Mo3578  Mo  0.575000  0.825000  0.325000
W3548  W  0.600000  0.800000  0.300000
Ta3543  Ta  0.625000  0.825000  0.325000
W3549  W  0.650000  0.800000  0.300000
W3550  W  0.675000  0.825000  0.325000
Ta3544  Ta  0.700000  0.800000  0.300000
Mo3579  Mo  0.725000  0.825000  0.325000
Nb3568  Nb  0.750000  0.800000  0.300000
Nb3569  Nb  0.775000  0.825000  0.325000
Ta3545  Ta  0.800000  0.800000  0.300000
Mo3580  Mo  0.825000  0.825000  0.325000
Mo3581  Mo  0.850000  0.800000  0.300000
Nb3570  Nb  0.875000  0.825000  0.325000
Nb3571  Nb  0.900000  0.800000  0.300000
Nb3572  Nb  0.925000  0.825000  0.325000
W3551  W  0.950000  0.800000  0.300000
W3552  W  0.975000  0.825000  0.325000
W3553  W  0.500000  0.850000  0.300000
Ta3546  Ta  0.525000  0.875000  0.325000
Ta3547  Ta  0.550000  0.850000  0.300000
Mo3582  Mo  0.575000  0.875000  0.325000
Mo3583  Mo  0.600000  0.850000  0.300000
W3554  W  0.625000  0.875000  0.325000
Ta3548  Ta  0.650000  0.850000  0.300000
Mo3584  Mo  0.675000  0.875000  0.325000
Nb3573  Nb  0.700000  0.850000  0.300000
Ta3549  Ta  0.725000  0.875000  0.325000
Ta3550  Ta  0.750000  0.850000  0.300000
Mo3585  Mo  0.775000  0.875000  0.325000
Ta3551  Ta  0.800000  0.850000  0.300000
W3555  W  0.825000  0.875000  0.325000
Nb3574  Nb  0.850000  0.850000  0.300000
Nb3575  Nb  0.875000  0.875000  0.325000
Nb3576  Nb  0.900000  0.850000  0.300000
W3556  W  0.925000  0.875000  0.325000
Ta3552  Ta  0.950000  0.850000  0.300000
Mo3586  Mo  0.975000  0.875000  0.325000
Ta3553  Ta  0.500000  0.900000  0.300000
Mo3587  Mo  0.525000  0.925000  0.325000
Ta3554  Ta  0.550000  0.900000  0.300000
Nb3577  Nb  0.575000  0.925000  0.325000
Mo3588  Mo  0.600000  0.900000  0.300000
Nb3578  Nb  0.625000  0.925000  0.325000
Mo3589  Mo  0.650000  0.900000  0.300000
Ta3555  Ta  0.675000  0.925000  0.325000
W3557  W  0.700000  0.900000  0.300000
Nb3579  Nb  0.725000  0.925000  0.325000
Mo3590  Mo  0.750000  0.900000  0.300000
W3558  W  0.775000  0.925000  0.325000
W3559  W  0.800000  0.900000  0.300000
Mo3591  Mo  0.825000  0.925000  0.325000
Nb3580  Nb  0.850000  0.900000  0.300000
Ta3556  Ta  0.875000  0.925000  0.325000
Mo3592  Mo  0.900000  0.900000  0.300000
Ta3557  Ta  0.925000  0.925000  0.325000
Nb3581  Nb  0.950000  0.900000  0.300000
W3560  W  0.975000  0.925000  0.325000
Mo3593  Mo  0.500000  0.950000  0.300000
Mo3594  Mo  0.525000  0.975000  0.325000
W3561  W  0.550000  0.950000  0.300000
Nb3582  Nb  0.575000  0.975000  0.325000
Mo3595  Mo  0.600000  0.950000  0.300000
W3562  W  0.625000  0.975000  0.325000
Mo3596  Mo  0.650000  0.950000  0.300000
Mo3597  Mo  0.675000  0.975000  0.325000
Nb3583  Nb  0.700000  0.950000  0.300000
Nb3584  Nb  0.725000  0.975000  0.325000
W3563  W  0.750000  0.950000  0.300000
Mo3598  Mo  0.775000  0.975000  0.325000
Ta3558  Ta  0.800000  0.950000  0.300000
Nb3585  Nb  0.825000  0.975000  0.325000
Ta3559  Ta  0.850000  0.950000  0.300000
Mo3599  Mo  0.875000  0.975000  0.325000
Ta3560  Ta  0.900000  0.950000  0.300000
Nb3586  Nb  0.925000  0.975000  0.325000
W3564  W  0.950000  0.950000  0.300000
W3565  W  0.975000  0.975000  0.325000
Nb3587  Nb  0.525000  0.675000  0.375000
Ta3561  Ta  0.575000  0.675000  0.375000
Nb3588  Nb  0.625000  0.675000  0.375000
Nb3589  Nb  0.675000  0.675000  0.375000
W3566  W  0.725000  0.675000  0.375000
W3567  W  0.775000  0.675000  0.375000
Ta3562  Ta  0.825000  0.675000  0.375000
Nb3590  Nb  0.875000  0.675000  0.375000
Mo3600  Mo  0.925000  0.675000  0.375000
Ta3563  Ta  0.975000  0.675000  0.375000
Nb3591  Nb  0.500000  0.700000  0.350000
Nb3592  Nb  0.525000  0.725000  0.375000
Mo3601  Mo  0.550000  0.700000  0.350000
W3568  W  0.575000  0.725000  0.375000
Mo3602  Mo  0.600000  0.700000  0.350000
W3569  W  0.625000  0.725000  0.375000
Ta3564  Ta  0.650000  0.700000  0.350000
W3570  W  0.675000  0.725000  0.375000
W3571  W  0.700000  0.700000  0.350000
Nb3593  Nb  0.725000  0.725000  0.375000
Nb3594  Nb  0.750000  0.700000  0.350000
Ta3565  Ta  0.775000  0.725000  0.375000
Ta3566  Ta  0.800000  0.700000  0.350000
Mo3603  Mo  0.825000  0.725000  0.375000
Ta3567  Ta  0.850000  0.700000  0.350000
Mo3604  Mo  0.875000  0.725000  0.375000
Ta3568  Ta  0.900000  0.700000  0.350000
W3572  W  0.925000  0.725000  0.375000
W3573  W  0.950000  0.700000  0.350000
Nb3595  Nb  0.975000  0.725000  0.375000
W3574  W  0.500000  0.750000  0.350000
W3575  W  0.525000  0.775000  0.375000
Nb3596  Nb  0.550000  0.750000  0.350000
Ta3569  Ta  0.575000  0.775000  0.375000
Nb3597  Nb  0.600000  0.750000  0.350000
W3576  W  0.625000  0.775000  0.375000
Ta3570  Ta  0.650000  0.750000  0.350000
Ta3571  Ta  0.675000  0.775000  0.375000
W3577  W  0.700000  0.750000  0.350000
Ta3572  Ta  0.725000  0.775000  0.375000
Nb3598  Nb  0.750000  0.750000  0.350000
W3578  W  0.775000  0.775000  0.375000
Mo3605  Mo  0.800000  0.750000  0.350000
W3579  W  0.825000  0.775000  0.375000
Mo3606  Mo  0.850000  0.750000  0.350000
Nb3599  Nb  0.875000  0.775000  0.375000
Ta3573  Ta  0.900000  0.750000  0.350000
Ta3574  Ta  0.925000  0.775000  0.375000
Ta3575  Ta  0.950000  0.750000  0.350000
Ta3576  Ta  0.975000  0.775000  0.375000
Ta3577  Ta  0.500000  0.800000  0.350000
Mo3607  Mo  0.525000  0.825000  0.375000
Ta3578  Ta  0.550000  0.800000  0.350000
W3580  W  0.575000  0.825000  0.375000
Ta3579  Ta  0.600000  0.800000  0.350000
Nb3600  Nb  0.625000  0.825000  0.375000
Mo3608  Mo  0.650000  0.800000  0.350000
Ta3580  Ta  0.675000  0.825000  0.375000
Nb3601  Nb  0.700000  0.800000  0.350000
Nb3602  Nb  0.725000  0.825000  0.375000
Mo3609  Mo  0.750000  0.800000  0.350000
Ta3581  Ta  0.775000  0.825000  0.375000
Nb3603  Nb  0.800000  0.800000  0.350000
W3581  W  0.825000  0.825000  0.375000
Nb3604  Nb  0.850000  0.800000  0.350000
Ta3582  Ta  0.875000  0.825000  0.375000
Nb3605  Nb  0.900000  0.800000  0.350000
Nb3606  Nb  0.925000  0.825000  0.375000
Nb3607  Nb  0.950000  0.800000  0.350000
Nb3608  Nb  0.975000  0.825000  0.375000
Nb3609  Nb  0.500000  0.850000  0.350000
Mo3610  Mo  0.525000  0.875000  0.375000
Mo3611  Mo  0.550000  0.850000  0.350000
Ta3583  Ta  0.575000  0.875000  0.375000
Ta3584  Ta  0.600000  0.850000  0.350000
Mo3612  Mo  0.625000  0.875000  0.375000
Mo3613  Mo  0.650000  0.850000  0.350000
Nb3610  Nb  0.675000  0.875000  0.375000
Ta3585  Ta  0.700000  0.850000  0.350000
Mo3614  Mo  0.725000  0.875000  0.375000
Ta3586  Ta  0.750000  0.850000  0.350000
W3582  W  0.775000  0.875000  0.375000
Ta3587  Ta  0.800000  0.850000  0.350000
W3583  W  0.825000  0.875000  0.375000
Mo3615  Mo  0.850000  0.850000  0.350000
W3584  W  0.875000  0.875000  0.375000
Nb3611  Nb  0.900000  0.850000  0.350000
W3585  W  0.925000  0.875000  0.375000
W3586  W  0.950000  0.850000  0.350000
Mo3616  Mo  0.975000  0.875000  0.375000
W3587  W  0.500000  0.900000  0.350000
Ta3588  Ta  0.525000  0.925000  0.375000
W3588  W  0.550000  0.900000  0.350000
W3589  W  0.575000  0.925000  0.375000
W3590  W  0.600000  0.900000  0.350000
Mo3617  Mo  0.625000  0.925000  0.375000
Mo3618  Mo  0.650000  0.900000  0.350000
Mo3619  Mo  0.675000  0.925000  0.375000
Mo3620  Mo  0.700000  0.900000  0.350000
W3591  W  0.725000  0.925000  0.375000
W3592  W  0.750000  0.900000  0.350000
Mo3621  Mo  0.775000  0.925000  0.375000
Ta3589  Ta  0.800000  0.900000  0.350000
Ta3590  Ta  0.825000  0.925000  0.375000
W3593  W  0.850000  0.900000  0.350000
W3594  W  0.875000  0.925000  0.375000
Mo3622  Mo  0.900000  0.900000  0.350000
Ta3591  Ta  0.925000  0.925000  0.375000
Nb3612  Nb  0.950000  0.900000  0.350000
Nb3613  Nb  0.975000  0.925000  0.375000
W3595  W  0.500000  0.950000  0.350000
Nb3614  Nb  0.525000  0.975000  0.375000
Nb3615  Nb  0.550000  0.950000  0.350000
Ta3592  Ta  0.575000  0.975000  0.375000
Ta3593  Ta  0.600000  0.950000  0.350000
Nb3616  Nb  0.625000  0.975000  0.375000
Ta3594  Ta  0.650000  0.950000  0.350000
Ta3595  Ta  0.675000  0.975000  0.375000
Mo3623  Mo  0.700000  0.950000  0.350000
Nb3617  Nb  0.725000  0.975000  0.375000
Mo3624  Mo  0.750000  0.950000  0.350000
Mo3625  Mo  0.775000  0.975000  0.375000
W3596  W  0.800000  0.950000  0.350000
Ta3596  Ta  0.825000  0.975000  0.375000
Nb3618  Nb  0.850000  0.950000  0.350000
W3597  W  0.875000  0.975000  0.375000
Nb3619  Nb  0.900000  0.950000  0.350000
Nb3620  Nb  0.925000  0.975000  0.375000
Mo3626  Mo  0.950000  0.950000  0.350000
Ta3597  Ta  0.975000  0.975000  0.375000
Ta3598  Ta  0.525000  0.675000  0.425000
Mo3627  Mo  0.575000  0.675000  0.425000
Mo3628  Mo  0.625000  0.675000  0.425000
Nb3621  Nb  0.675000  0.675000  0.425000
W3598  W  0.725000  0.675000  0.425000
Nb3622  Nb  0.775000  0.675000  0.425000
Nb3623  Nb  0.825000  0.675000  0.425000
W3599  W  0.875000  0.675000  0.425000
Ta3599  Ta  0.925000  0.675000  0.425000
Ta3600  Ta  0.975000  0.675000  0.425000
W3600  W  0.500000  0.700000  0.400000
Ta3601  Ta  0.525000  0.725000  0.425000
Nb3624  Nb  0.550000  0.700000  0.400000
Nb3625  Nb  0.575000  0.725000  0.425000
Mo3629  Mo  0.600000  0.700000  0.400000
Ta3602  Ta  0.625000  0.725000  0.425000
Ta3603  Ta  0.650000  0.700000  0.400000
Ta3604  Ta  0.675000  0.725000  0.425000
Mo3630  Mo  0.700000  0.700000  0.400000
W3601  W  0.725000  0.725000  0.425000
W3602  W  0.750000  0.700000  0.400000
W3603  W  0.775000  0.725000  0.425000
Nb3626  Nb  0.800000  0.700000  0.400000
Ta3605  Ta  0.825000  0.725000  0.425000
Mo3631  Mo  0.850000  0.700000  0.400000
Nb3627  Nb  0.875000  0.725000  0.425000
Nb3628  Nb  0.900000  0.700000  0.400000
W3604  W  0.925000  0.725000  0.425000
Mo3632  Mo  0.950000  0.700000  0.400000
Mo3633  Mo  0.975000  0.725000  0.425000
Mo3634  Mo  0.500000  0.750000  0.400000
W3605  W  0.525000  0.775000  0.425000
Nb3629  Nb  0.550000  0.750000  0.400000
Mo3635  Mo  0.575000  0.775000  0.425000
Ta3606  Ta  0.600000  0.750000  0.400000
W3606  W  0.625000  0.775000  0.425000
Mo3636  Mo  0.650000  0.750000  0.400000
Nb3630  Nb  0.675000  0.775000  0.425000
Ta3607  Ta  0.700000  0.750000  0.400000
Nb3631  Nb  0.725000  0.775000  0.425000
Nb3632  Nb  0.750000  0.750000  0.400000
Nb3633  Nb  0.775000  0.775000  0.425000
Ta3608  Ta  0.800000  0.750000  0.400000
Nb3634  Nb  0.825000  0.775000  0.425000
Mo3637  Mo  0.850000  0.750000  0.400000
Ta3609  Ta  0.875000  0.775000  0.425000
Mo3638  Mo  0.900000  0.750000  0.400000
Nb3635  Nb  0.925000  0.775000  0.425000
W3607  W  0.950000  0.750000  0.400000
Ta3610  Ta  0.975000  0.775000  0.425000
Mo3639  Mo  0.500000  0.800000  0.400000
W3608  W  0.525000  0.825000  0.425000
Nb3636  Nb  0.550000  0.800000  0.400000
Nb3637  Nb  0.575000  0.825000  0.425000
Ta3611  Ta  0.600000  0.800000  0.400000
Nb3638  Nb  0.625000  0.825000  0.425000
Mo3640  Mo  0.650000  0.800000  0.400000
Ta3612  Ta  0.675000  0.825000  0.425000
Nb3639  Nb  0.700000  0.800000  0.400000
Ta3613  Ta  0.725000  0.825000  0.425000
Nb3640  Nb  0.750000  0.800000  0.400000
Ta3614  Ta  0.775000  0.825000  0.425000
W3609  W  0.800000  0.800000  0.400000
Ta3615  Ta  0.825000  0.825000  0.425000
Mo3641  Mo  0.850000  0.800000  0.400000
Mo3642  Mo  0.875000  0.825000  0.425000
W3610  W  0.900000  0.800000  0.400000
Ta3616  Ta  0.925000  0.825000  0.425000
Mo3643  Mo  0.950000  0.800000  0.400000
W3611  W  0.975000  0.825000  0.425000
Mo3644  Mo  0.500000  0.850000  0.400000
W3612  W  0.525000  0.875000  0.425000
Ta3617  Ta  0.550000  0.850000  0.400000
Nb3641  Nb  0.575000  0.875000  0.425000
Nb3642  Nb  0.600000  0.850000  0.400000
Ta3618  Ta  0.625000  0.875000  0.425000
Mo3645  Mo  0.650000  0.850000  0.400000
W3613  W  0.675000  0.875000  0.425000
Nb3643  Nb  0.700000  0.850000  0.400000
W3614  W  0.725000  0.875000  0.425000
Nb3644  Nb  0.750000  0.850000  0.400000
W3615  W  0.775000  0.875000  0.425000
Ta3619  Ta  0.800000  0.850000  0.400000
W3616  W  0.825000  0.875000  0.425000
Ta3620  Ta  0.850000  0.850000  0.400000
Mo3646  Mo  0.875000  0.875000  0.425000
Ta3621  Ta  0.900000  0.850000  0.400000
Ta3622  Ta  0.925000  0.875000  0.425000
Nb3645  Nb  0.950000  0.850000  0.400000
Ta3623  Ta  0.975000  0.875000  0.425000
Ta3624  Ta  0.500000  0.900000  0.400000
Ta3625  Ta  0.525000  0.925000  0.425000
Ta3626  Ta  0.550000  0.900000  0.400000
Mo3647  Mo  0.575000  0.925000  0.425000
W3617  W  0.600000  0.900000  0.400000
Nb3646  Nb  0.625000  0.925000  0.425000
Nb3647  Nb  0.650000  0.900000  0.400000
Ta3627  Ta  0.675000  0.925000  0.425000
Ta3628  Ta  0.700000  0.900000  0.400000
Mo3648  Mo  0.725000  0.925000  0.425000
Mo3649  Mo  0.750000  0.900000  0.400000
W3618  W  0.775000  0.925000  0.425000
W3619  W  0.800000  0.900000  0.400000
Nb3648  Nb  0.825000  0.925000  0.425000
Nb3649  Nb  0.850000  0.900000  0.400000
Nb3650  Nb  0.875000  0.925000  0.425000
W3620  W  0.900000  0.900000  0.400000
W3621  W  0.925000  0.925000  0.425000
Mo3650  Mo  0.950000  0.900000  0.400000
W3622  W  0.975000  0.925000  0.425000
Ta3629  Ta  0.500000  0.950000  0.400000
Nb3651  Nb  0.525000  0.975000  0.425000
Nb3652  Nb  0.550000  0.950000  0.400000
Ta3630  Ta  0.575000  0.975000  0.425000
W3623  W  0.600000  0.950000  0.400000
Ta3631  Ta  0.625000  0.975000  0.425000
Nb3653  Nb  0.650000  0.950000  0.400000
Nb3654  Nb  0.675000  0.975000  0.425000
Nb3655  Nb  0.700000  0.950000  0.400000
Nb3656  Nb  0.725000  0.975000  0.425000
Ta3632  Ta  0.750000  0.950000  0.400000
Ta3633  Ta  0.775000  0.975000  0.425000
Nb3657  Nb  0.800000  0.950000  0.400000
Nb3658  Nb  0.825000  0.975000  0.425000
Ta3634  Ta  0.850000  0.950000  0.400000
Nb3659  Nb  0.875000  0.975000  0.425000
W3624  W  0.900000  0.950000  0.400000
W3625  W  0.925000  0.975000  0.425000
Mo3651  Mo  0.950000  0.950000  0.400000
Mo3652  Mo  0.975000  0.975000  0.425000
Nb3660  Nb  0.525000  0.675000  0.475000
W3626  W  0.575000  0.675000  0.475000
W3627  W  0.625000  0.675000  0.475000
Mo3653  Mo  0.675000  0.675000  0.475000
Nb3661  Nb  0.725000  0.675000  0.475000
Ta3635  Ta  0.775000  0.675000  0.475000
Ta3636  Ta  0.825000  0.675000  0.475000
Ta3637  Ta  0.875000  0.675000  0.475000
Mo3654  Mo  0.925000  0.675000  0.475000
Mo3655  Mo  0.975000  0.675000  0.475000
Ta3638  Ta  0.500000  0.700000  0.450000
W3628  W  0.525000  0.725000  0.475000
Mo3656  Mo  0.550000  0.700000  0.450000
Nb3662  Nb  0.575000  0.725000  0.475000
Ta3639  Ta  0.600000  0.700000  0.450000
Ta3640  Ta  0.625000  0.725000  0.475000
Nb3663  Nb  0.650000  0.700000  0.450000
Mo3657  Mo  0.675000  0.725000  0.475000
Nb3664  Nb  0.700000  0.700000  0.450000
Nb3665  Nb  0.725000  0.725000  0.475000
W3629  W  0.750000  0.700000  0.450000
W3630  W  0.775000  0.725000  0.475000
Nb3666  Nb  0.800000  0.700000  0.450000
Mo3658  Mo  0.825000  0.725000  0.475000
Mo3659  Mo  0.850000  0.700000  0.450000
Mo3660  Mo  0.875000  0.725000  0.475000
Ta3641  Ta  0.900000  0.700000  0.450000
Mo3661  Mo  0.925000  0.725000  0.475000
Nb3667  Nb  0.950000  0.700000  0.450000
W3631  W  0.975000  0.725000  0.475000
W3632  W  0.500000  0.750000  0.450000
Ta3642  Ta  0.525000  0.775000  0.475000
Nb3668  Nb  0.550000  0.750000  0.450000
Ta3643  Ta  0.575000  0.775000  0.475000
Ta3644  Ta  0.600000  0.750000  0.450000
Mo3662  Mo  0.625000  0.775000  0.475000
Mo3663  Mo  0.650000  0.750000  0.450000
Nb3669  Nb  0.675000  0.775000  0.475000
Ta3645  Ta  0.700000  0.750000  0.450000
W3633  W  0.725000  0.775000  0.475000
Ta3646  Ta  0.750000  0.750000  0.450000
Nb3670  Nb  0.775000  0.775000  0.475000
Mo3664  Mo  0.800000  0.750000  0.450000
Nb3671  Nb  0.825000  0.775000  0.475000
Mo3665  Mo  0.850000  0.750000  0.450000
Mo3666  Mo  0.875000  0.775000  0.475000
Nb3672  Nb  0.900000  0.750000  0.450000
Ta3647  Ta  0.925000  0.775000  0.475000
Nb3673  Nb  0.950000  0.750000  0.450000
Nb3674  Nb  0.975000  0.775000  0.475000
W3634  W  0.500000  0.800000  0.450000
Ta3648  Ta  0.525000  0.825000  0.475000
W3635  W  0.550000  0.800000  0.450000
Nb3675  Nb  0.575000  0.825000  0.475000
Nb3676  Nb  0.600000  0.800000  0.450000
Ta3649  Ta  0.625000  0.825000  0.475000
W3636  W  0.650000  0.800000  0.450000
W3637  W  0.675000  0.825000  0.475000
Mo3667  Mo  0.700000  0.800000  0.450000
W3638  W  0.725000  0.825000  0.475000
Ta3650  Ta  0.750000  0.800000  0.450000
W3639  W  0.775000  0.825000  0.475000
Mo3668  Mo  0.800000  0.800000  0.450000
Mo3669  Mo  0.825000  0.825000  0.475000
Mo3670  Mo  0.850000  0.800000  0.450000
Ta3651  Ta  0.875000  0.825000  0.475000
Mo3671  Mo  0.900000  0.800000  0.450000
Ta3652  Ta  0.925000  0.825000  0.475000
Nb3677  Nb  0.950000  0.800000  0.450000
Nb3678  Nb  0.975000  0.825000  0.475000
W3640  W  0.500000  0.850000  0.450000
Mo3672  Mo  0.525000  0.875000  0.475000
Nb3679  Nb  0.550000  0.850000  0.450000
W3641  W  0.575000  0.875000  0.475000
Mo3673  Mo  0.600000  0.850000  0.450000
W3642  W  0.625000  0.875000  0.475000
W3643  W  0.650000  0.850000  0.450000
Mo3674  Mo  0.675000  0.875000  0.475000
W3644  W  0.700000  0.850000  0.450000
W3645  W  0.725000  0.875000  0.475000
Nb3680  Nb  0.750000  0.850000  0.450000
Nb3681  Nb  0.775000  0.875000  0.475000
Nb3682  Nb  0.800000  0.850000  0.450000
Ta3653  Ta  0.825000  0.875000  0.475000
Mo3675  Mo  0.850000  0.850000  0.450000
Nb3683  Nb  0.875000  0.875000  0.475000
Mo3676  Mo  0.900000  0.850000  0.450000
Ta3654  Ta  0.925000  0.875000  0.475000
Nb3684  Nb  0.950000  0.850000  0.450000
Nb3685  Nb  0.975000  0.875000  0.475000
Mo3677  Mo  0.500000  0.900000  0.450000
Ta3655  Ta  0.525000  0.925000  0.475000
Nb3686  Nb  0.550000  0.900000  0.450000
W3646  W  0.575000  0.925000  0.475000
Mo3678  Mo  0.600000  0.900000  0.450000
Nb3687  Nb  0.625000  0.925000  0.475000
Nb3688  Nb  0.650000  0.900000  0.450000
Mo3679  Mo  0.675000  0.925000  0.475000
W3647  W  0.700000  0.900000  0.450000
Ta3656  Ta  0.725000  0.925000  0.475000
Nb3689  Nb  0.750000  0.900000  0.450000
Mo3680  Mo  0.775000  0.925000  0.475000
Nb3690  Nb  0.800000  0.900000  0.450000
Ta3657  Ta  0.825000  0.925000  0.475000
Mo3681  Mo  0.850000  0.900000  0.450000
Ta3658  Ta  0.875000  0.925000  0.475000
W3648  W  0.900000  0.900000  0.450000
W3649  W  0.925000  0.925000  0.475000
Nb3691  Nb  0.950000  0.900000  0.450000
W3650  W  0.975000  0.925000  0.475000
W3651  W  0.500000  0.950000  0.450000
Mo3682  Mo  0.525000  0.975000  0.475000
Mo3683  Mo  0.550000  0.950000  0.450000
Mo3684  Mo  0.575000  0.975000  0.475000
Nb3692  Nb  0.600000  0.950000  0.450000
Nb3693  Nb  0.625000  0.975000  0.475000
Nb3694  Nb  0.650000  0.950000  0.450000
Nb3695  Nb  0.675000  0.975000  0.475000
Nb3696  Nb  0.700000  0.950000  0.450000
Ta3659  Ta  0.725000  0.975000  0.475000
Ta3660  Ta  0.750000  0.950000  0.450000
Mo3685  Mo  0.775000  0.975000  0.475000
Nb3697  Nb  0.800000  0.950000  0.450000
Nb3698  Nb  0.825000  0.975000  0.475000
Ta3661  Ta  0.850000  0.950000  0.450000
Mo3686  Mo  0.875000  0.975000  0.475000
Mo3687  Mo  0.900000  0.950000  0.450000
W3652  W  0.925000  0.975000  0.475000
Ta3662  Ta  0.950000  0.950000  0.450000
Mo3688  Mo  0.975000  0.975000  0.475000
W3653  W  0.525000  0.675000  0.525000
W3654  W  0.575000  0.675000  0.525000
W3655  W  0.625000  0.675000  0.525000
Ta3663  Ta  0.675000  0.675000  0.525000
Mo3689  Mo  0.725000  0.675000  0.525000
Ta3664  Ta  0.775000  0.675000  0.525000
Ta3665  Ta  0.825000  0.675000  0.525000
Nb3699  Nb  0.875000  0.675000  0.525000
W3656  W  0.925000  0.675000  0.525000
Ta3666  Ta  0.975000  0.675000  0.525000
Nb3700  Nb  0.500000  0.700000  0.500000
Nb3701  Nb  0.525000  0.725000  0.525000
Nb3702  Nb  0.550000  0.700000  0.500000
Ta3667  Ta  0.575000  0.725000  0.525000
Nb3703  Nb  0.600000  0.700000  0.500000
Mo3690  Mo  0.625000  0.725000  0.525000
Nb3704  Nb  0.650000  0.700000  0.500000
Mo3691  Mo  0.675000  0.725000  0.525000
Mo3692  Mo  0.700000  0.700000  0.500000
W3657  W  0.725000  0.725000  0.525000
Mo3693  Mo  0.750000  0.700000  0.500000
Nb3705  Nb  0.775000  0.725000  0.525000
Mo3694  Mo  0.800000  0.700000  0.500000
Mo3695  Mo  0.825000  0.725000  0.525000
Mo3696  Mo  0.850000  0.700000  0.500000
Mo3697  Mo  0.875000  0.725000  0.525000
Nb3706  Nb  0.900000  0.700000  0.500000
Nb3707  Nb  0.925000  0.725000  0.525000
Nb3708  Nb  0.950000  0.700000  0.500000
Mo3698  Mo  0.975000  0.725000  0.525000
W3658  W  0.500000  0.750000  0.500000
Ta3668  Ta  0.525000  0.775000  0.525000
Nb3709  Nb  0.550000  0.750000  0.500000
Mo3699  Mo  0.575000  0.775000  0.525000
W3659  W  0.600000  0.750000  0.500000
W3660  W  0.625000  0.775000  0.525000
Ta3669  Ta  0.650000  0.750000  0.500000
W3661  W  0.675000  0.775000  0.525000
W3662  W  0.700000  0.750000  0.500000
Ta3670  Ta  0.725000  0.775000  0.525000
Ta3671  Ta  0.750000  0.750000  0.500000
Ta3672  Ta  0.775000  0.775000  0.525000
Nb3710  Nb  0.800000  0.750000  0.500000
Mo3700  Mo  0.825000  0.775000  0.525000
W3663  W  0.850000  0.750000  0.500000
W3664  W  0.875000  0.775000  0.525000
Ta3673  Ta  0.900000  0.750000  0.500000
Ta3674  Ta  0.925000  0.775000  0.525000
Ta3675  Ta  0.950000  0.750000  0.500000
W3665  W  0.975000  0.775000  0.525000
W3666  W  0.500000  0.800000  0.500000
Mo3701  Mo  0.525000  0.825000  0.525000
Mo3702  Mo  0.550000  0.800000  0.500000
Ta3676  Ta  0.575000  0.825000  0.525000
Nb3711  Nb  0.600000  0.800000  0.500000
Mo3703  Mo  0.625000  0.825000  0.525000
Nb3712  Nb  0.650000  0.800000  0.500000
Nb3713  Nb  0.675000  0.825000  0.525000
Ta3677  Ta  0.700000  0.800000  0.500000
Ta3678  Ta  0.725000  0.825000  0.525000
W3667  W  0.750000  0.800000  0.500000
Nb3714  Nb  0.775000  0.825000  0.525000
Nb3715  Nb  0.800000  0.800000  0.500000
W3668  W  0.825000  0.825000  0.525000
Ta3679  Ta  0.850000  0.800000  0.500000
Mo3704  Mo  0.875000  0.825000  0.525000
Mo3705  Mo  0.900000  0.800000  0.500000
W3669  W  0.925000  0.825000  0.525000
W3670  W  0.950000  0.800000  0.500000
Ta3680  Ta  0.975000  0.825000  0.525000
W3671  W  0.500000  0.850000  0.500000
Mo3706  Mo  0.525000  0.875000  0.525000
Ta3681  Ta  0.550000  0.850000  0.500000
W3672  W  0.575000  0.875000  0.525000
Nb3716  Nb  0.600000  0.850000  0.500000
Ta3682  Ta  0.625000  0.875000  0.525000
Ta3683  Ta  0.650000  0.850000  0.500000
W3673  W  0.675000  0.875000  0.525000
Nb3717  Nb  0.700000  0.850000  0.500000
Mo3707  Mo  0.725000  0.875000  0.525000
Nb3718  Nb  0.750000  0.850000  0.500000
Nb3719  Nb  0.775000  0.875000  0.525000
Nb3720  Nb  0.800000  0.850000  0.500000
Ta3684  Ta  0.825000  0.875000  0.525000
Mo3708  Mo  0.850000  0.850000  0.500000
Ta3685  Ta  0.875000  0.875000  0.525000
Mo3709  Mo  0.900000  0.850000  0.500000
Mo3710  Mo  0.925000  0.875000  0.525000
Ta3686  Ta  0.950000  0.850000  0.500000
Nb3721  Nb  0.975000  0.875000  0.525000
Nb3722  Nb  0.500000  0.900000  0.500000
W3674  W  0.525000  0.925000  0.525000
Nb3723  Nb  0.550000  0.900000  0.500000
Ta3687  Ta  0.575000  0.925000  0.525000
Ta3688  Ta  0.600000  0.900000  0.500000
Ta3689  Ta  0.625000  0.925000  0.525000
W3675  W  0.650000  0.900000  0.500000
W3676  W  0.675000  0.925000  0.525000
Ta3690  Ta  0.700000  0.900000  0.500000
Mo3711  Mo  0.725000  0.925000  0.525000
Mo3712  Mo  0.750000  0.900000  0.500000
Mo3713  Mo  0.775000  0.925000  0.525000
Nb3724  Nb  0.800000  0.900000  0.500000
Nb3725  Nb  0.825000  0.925000  0.525000
W3677  W  0.850000  0.900000  0.500000
W3678  W  0.875000  0.925000  0.525000
W3679  W  0.900000  0.900000  0.500000
Ta3691  Ta  0.925000  0.925000  0.525000
W3680  W  0.950000  0.900000  0.500000
Nb3726  Nb  0.975000  0.925000  0.525000
Ta3692  Ta  0.500000  0.950000  0.500000
Nb3727  Nb  0.525000  0.975000  0.525000
Mo3714  Mo  0.550000  0.950000  0.500000
Nb3728  Nb  0.575000  0.975000  0.525000
Ta3693  Ta  0.600000  0.950000  0.500000
Mo3715  Mo  0.625000  0.975000  0.525000
Ta3694  Ta  0.650000  0.950000  0.500000
W3681  W  0.675000  0.975000  0.525000
Mo3716  Mo  0.700000  0.950000  0.500000
W3682  W  0.725000  0.975000  0.525000
Nb3729  Nb  0.750000  0.950000  0.500000
Ta3695  Ta  0.775000  0.975000  0.525000
Mo3717  Mo  0.800000  0.950000  0.500000
Nb3730  Nb  0.825000  0.975000  0.525000
Mo3718  Mo  0.850000  0.950000  0.500000
W3683  W  0.875000  0.975000  0.525000
W3684  W  0.900000  0.950000  0.500000
Ta3696  Ta  0.925000  0.975000  0.525000
Ta3697  Ta  0.950000  0.950000  0.500000
Mo3719  Mo  0.975000  0.975000  0.525000
W3685  W  0.525000  0.675000  0.575000
Ta3698  Ta  0.575000  0.675000  0.575000
Mo3720  Mo  0.625000  0.675000  0.575000
W3686  W  0.675000  0.675000  0.575000
W3687  W  0.725000  0.675000  0.575000
Ta3699  Ta  0.775000  0.675000  0.575000
W3688  W  0.825000  0.675000  0.575000
W3689  W  0.875000  0.675000  0.575000
Nb3731  Nb  0.925000  0.675000  0.575000
Mo3721  Mo  0.975000  0.675000  0.575000
W3690  W  0.500000  0.700000  0.550000
W3691  W  0.525000  0.725000  0.575000
Ta3700  Ta  0.550000  0.700000  0.550000
Mo3722  Mo  0.575000  0.725000  0.575000
Ta3701  Ta  0.600000  0.700000  0.550000
Nb3732  Nb  0.625000  0.725000  0.575000
W3692  W  0.650000  0.700000  0.550000
Ta3702  Ta  0.675000  0.725000  0.575000
Nb3733  Nb  0.700000  0.700000  0.550000
Nb3734  Nb  0.725000  0.725000  0.575000
Nb3735  Nb  0.750000  0.700000  0.550000
Ta3703  Ta  0.775000  0.725000  0.575000
Mo3723  Mo  0.800000  0.700000  0.550000
Nb3736  Nb  0.825000  0.725000  0.575000
Ta3704  Ta  0.850000  0.700000  0.550000
Mo3724  Mo  0.875000  0.725000  0.575000
Mo3725  Mo  0.900000  0.700000  0.550000
W3693  W  0.925000  0.725000  0.575000
Mo3726  Mo  0.950000  0.700000  0.550000
W3694  W  0.975000  0.725000  0.575000
Nb3737  Nb  0.500000  0.750000  0.550000
Nb3738  Nb  0.525000  0.775000  0.575000
Nb3739  Nb  0.550000  0.750000  0.550000
Mo3727  Mo  0.575000  0.775000  0.575000
Mo3728  Mo  0.600000  0.750000  0.550000
Nb3740  Nb  0.625000  0.775000  0.575000
Mo3729  Mo  0.650000  0.750000  0.550000
Mo3730  Mo  0.675000  0.775000  0.575000
Ta3705  Ta  0.700000  0.750000  0.550000
Nb3741  Nb  0.725000  0.775000  0.575000
W3695  W  0.750000  0.750000  0.550000
Mo3731  Mo  0.775000  0.775000  0.575000
W3696  W  0.800000  0.750000  0.550000
W3697  W  0.825000  0.775000  0.575000
Mo3732  Mo  0.850000  0.750000  0.550000
Mo3733  Mo  0.875000  0.775000  0.575000
Mo3734  Mo  0.900000  0.750000  0.550000
Ta3706  Ta  0.925000  0.775000  0.575000
W3698  W  0.950000  0.750000  0.550000
Mo3735  Mo  0.975000  0.775000  0.575000
Ta3707  Ta  0.500000  0.800000  0.550000
Mo3736  Mo  0.525000  0.825000  0.575000
Mo3737  Mo  0.550000  0.800000  0.550000
Nb3742  Nb  0.575000  0.825000  0.575000
Mo3738  Mo  0.600000  0.800000  0.550000
Nb3743  Nb  0.625000  0.825000  0.575000
W3699  W  0.650000  0.800000  0.550000
Nb3744  Nb  0.675000  0.825000  0.575000
Ta3708  Ta  0.700000  0.800000  0.550000
Nb3745  Nb  0.725000  0.825000  0.575000
W3700  W  0.750000  0.800000  0.550000
Nb3746  Nb  0.775000  0.825000  0.575000
Mo3739  Mo  0.800000  0.800000  0.550000
Nb3747  Nb  0.825000  0.825000  0.575000
W3701  W  0.850000  0.800000  0.550000
Nb3748  Nb  0.875000  0.825000  0.575000
Ta3709  Ta  0.900000  0.800000  0.550000
Ta3710  Ta  0.925000  0.825000  0.575000
Nb3749  Nb  0.950000  0.800000  0.550000
W3702  W  0.975000  0.825000  0.575000
Ta3711  Ta  0.500000  0.850000  0.550000
Mo3740  Mo  0.525000  0.875000  0.575000
Mo3741  Mo  0.550000  0.850000  0.550000
Mo3742  Mo  0.575000  0.875000  0.575000
Ta3712  Ta  0.600000  0.850000  0.550000
Ta3713  Ta  0.625000  0.875000  0.575000
W3703  W  0.650000  0.850000  0.550000
W3704  W  0.675000  0.875000  0.575000
W3705  W  0.700000  0.850000  0.550000
Mo3743  Mo  0.725000  0.875000  0.575000
W3706  W  0.750000  0.850000  0.550000
Nb3750  Nb  0.775000  0.875000  0.575000
Nb3751  Nb  0.800000  0.850000  0.550000
Mo3744  Mo  0.825000  0.875000  0.575000
Ta3714  Ta  0.850000  0.850000  0.550000
Ta3715  Ta  0.875000  0.875000  0.575000
Ta3716  Ta  0.900000  0.850000  0.550000
Nb3752  Nb  0.925000  0.875000  0.575000
Ta3717  Ta  0.950000  0.850000  0.550000
Mo3745  Mo  0.975000  0.875000  0.575000
Nb3753  Nb  0.500000  0.900000  0.550000
Mo3746  Mo  0.525000  0.925000  0.575000
Nb3754  Nb  0.550000  0.900000  0.550000
Nb3755  Nb  0.575000  0.925000  0.575000
W3707  W  0.600000  0.900000  0.550000
Mo3747  Mo  0.625000  0.925000  0.575000
Ta3718  Ta  0.650000  0.900000  0.550000
Nb3756  Nb  0.675000  0.925000  0.575000
Nb3757  Nb  0.700000  0.900000  0.550000
Ta3719  Ta  0.725000  0.925000  0.575000
Mo3748  Mo  0.750000  0.900000  0.550000
Nb3758  Nb  0.775000  0.925000  0.575000
Ta3720  Ta  0.800000  0.900000  0.550000
Ta3721  Ta  0.825000  0.925000  0.575000
W3708  W  0.850000  0.900000  0.550000
Ta3722  Ta  0.875000  0.925000  0.575000
Nb3759  Nb  0.900000  0.900000  0.550000
Nb3760  Nb  0.925000  0.925000  0.575000
Ta3723  Ta  0.950000  0.900000  0.550000
Mo3749  Mo  0.975000  0.925000  0.575000
W3709  W  0.500000  0.950000  0.550000
W3710  W  0.525000  0.975000  0.575000
W3711  W  0.550000  0.950000  0.550000
Mo3750  Mo  0.575000  0.975000  0.575000
Mo3751  Mo  0.600000  0.950000  0.550000
Nb3761  Nb  0.625000  0.975000  0.575000
Ta3724  Ta  0.650000  0.950000  0.550000
Ta3725  Ta  0.675000  0.975000  0.575000
Ta3726  Ta  0.700000  0.950000  0.550000
W3712  W  0.725000  0.975000  0.575000
Nb3762  Nb  0.750000  0.950000  0.550000
Mo3752  Mo  0.775000  0.975000  0.575000
Nb3763  Nb  0.800000  0.950000  0.550000
W3713  W  0.825000  0.975000  0.575000
Nb3764  Nb  0.850000  0.950000  0.550000
Ta3727  Ta  0.875000  0.975000  0.575000
W3714  W  0.900000  0.950000  0.550000
Nb3765  Nb  0.925000  0.975000  0.575000
W3715  W  0.950000  0.950000  0.550000
Mo3753  Mo  0.975000  0.975000  0.575000
Mo3754  Mo  0.525000  0.675000  0.625000
Ta3728  Ta  0.575000  0.675000  0.625000
W3716  W  0.625000  0.675000  0.625000
W3717  W  0.675000  0.675000  0.625000
Mo3755  Mo  0.725000  0.675000  0.625000
W3718  W  0.775000  0.675000  0.625000
W3719  W  0.825000  0.675000  0.625000
W3720  W  0.875000  0.675000  0.625000
Ta3729  Ta  0.925000  0.675000  0.625000
Mo3756  Mo  0.975000  0.675000  0.625000
Ta3730  Ta  0.500000  0.700000  0.600000
W3721  W  0.525000  0.725000  0.625000
W3722  W  0.550000  0.700000  0.600000
Mo3757  Mo  0.575000  0.725000  0.625000
W3723  W  0.600000  0.700000  0.600000
W3724  W  0.625000  0.725000  0.625000
Nb3766  Nb  0.650000  0.700000  0.600000
W3725  W  0.675000  0.725000  0.625000
Mo3758  Mo  0.700000  0.700000  0.600000
Ta3731  Ta  0.725000  0.725000  0.625000
Ta3732  Ta  0.750000  0.700000  0.600000
W3726  W  0.775000  0.725000  0.625000
Mo3759  Mo  0.800000  0.700000  0.600000
Mo3760  Mo  0.825000  0.725000  0.625000
W3727  W  0.850000  0.700000  0.600000
Mo3761  Mo  0.875000  0.725000  0.625000
Mo3762  Mo  0.900000  0.700000  0.600000
Mo3763  Mo  0.925000  0.725000  0.625000
Mo3764  Mo  0.950000  0.700000  0.600000
Nb3767  Nb  0.975000  0.725000  0.625000
Mo3765  Mo  0.500000  0.750000  0.600000
Ta3733  Ta  0.525000  0.775000  0.625000
Ta3734  Ta  0.550000  0.750000  0.600000
W3728  W  0.575000  0.775000  0.625000
Mo3766  Mo  0.600000  0.750000  0.600000
Mo3767  Mo  0.625000  0.775000  0.625000
W3729  W  0.650000  0.750000  0.600000
Ta3735  Ta  0.675000  0.775000  0.625000
Nb3768  Nb  0.700000  0.750000  0.600000
W3730  W  0.725000  0.775000  0.625000
W3731  W  0.750000  0.750000  0.600000
W3732  W  0.775000  0.775000  0.625000
W3733  W  0.800000  0.750000  0.600000
Ta3736  Ta  0.825000  0.775000  0.625000
Nb3769  Nb  0.850000  0.750000  0.600000
Nb3770  Nb  0.875000  0.775000  0.625000
Mo3768  Mo  0.900000  0.750000  0.600000
Ta3737  Ta  0.925000  0.775000  0.625000
Mo3769  Mo  0.950000  0.750000  0.600000
Mo3770  Mo  0.975000  0.775000  0.625000
Nb3771  Nb  0.500000  0.800000  0.600000
W3734  W  0.525000  0.825000  0.625000
Mo3771  Mo  0.550000  0.800000  0.600000
Nb3772  Nb  0.575000  0.825000  0.625000
Nb3773  Nb  0.600000  0.800000  0.600000
Mo3772  Mo  0.625000  0.825000  0.625000
W3735  W  0.650000  0.800000  0.600000
W3736  W  0.675000  0.825000  0.625000
Nb3774  Nb  0.700000  0.800000  0.600000
Mo3773  Mo  0.725000  0.825000  0.625000
Mo3774  Mo  0.750000  0.800000  0.600000
W3737  W  0.775000  0.825000  0.625000
W3738  W  0.800000  0.800000  0.600000
W3739  W  0.825000  0.825000  0.625000
W3740  W  0.850000  0.800000  0.600000
W3741  W  0.875000  0.825000  0.625000
W3742  W  0.900000  0.800000  0.600000
W3743  W  0.925000  0.825000  0.625000
Mo3775  Mo  0.950000  0.800000  0.600000
W3744  W  0.975000  0.825000  0.625000
Nb3775  Nb  0.500000  0.850000  0.600000
W3745  W  0.525000  0.875000  0.625000
Ta3738  Ta  0.550000  0.850000  0.600000
Nb3776  Nb  0.575000  0.875000  0.625000
Nb3777  Nb  0.600000  0.850000  0.600000
Mo3776  Mo  0.625000  0.875000  0.625000
Ta3739  Ta  0.650000  0.850000  0.600000
W3746  W  0.675000  0.875000  0.625000
W3747  W  0.700000  0.850000  0.600000
Ta3740  Ta  0.725000  0.875000  0.625000
Ta3741  Ta  0.750000  0.850000  0.600000
Mo3777  Mo  0.775000  0.875000  0.625000
Ta3742  Ta  0.800000  0.850000  0.600000
Ta3743  Ta  0.825000  0.875000  0.625000
Nb3778  Nb  0.850000  0.850000  0.600000
Nb3779  Nb  0.875000  0.875000  0.625000
W3748  W  0.900000  0.850000  0.600000
Mo3778  Mo  0.925000  0.875000  0.625000
Nb3780  Nb  0.950000  0.850000  0.600000
Ta3744  Ta  0.975000  0.875000  0.625000
Ta3745  Ta  0.500000  0.900000  0.600000
W3749  W  0.525000  0.925000  0.625000
Mo3779  Mo  0.550000  0.900000  0.600000
Mo3780  Mo  0.575000  0.925000  0.625000
Mo3781  Mo  0.600000  0.900000  0.600000
W3750  W  0.625000  0.925000  0.625000
Nb3781  Nb  0.650000  0.900000  0.600000
Ta3746  Ta  0.675000  0.925000  0.625000
Ta3747  Ta  0.700000  0.900000  0.600000
Nb3782  Nb  0.725000  0.925000  0.625000
Mo3782  Mo  0.750000  0.900000  0.600000
W3751  W  0.775000  0.925000  0.625000
Mo3783  Mo  0.800000  0.900000  0.600000
W3752  W  0.825000  0.925000  0.625000
Mo3784  Mo  0.850000  0.900000  0.600000
Nb3783  Nb  0.875000  0.925000  0.625000
Ta3748  Ta  0.900000  0.900000  0.600000
Ta3749  Ta  0.925000  0.925000  0.625000
Ta3750  Ta  0.950000  0.900000  0.600000
Ta3751  Ta  0.975000  0.925000  0.625000
Ta3752  Ta  0.500000  0.950000  0.600000
Ta3753  Ta  0.525000  0.975000  0.625000
Ta3754  Ta  0.550000  0.950000  0.600000
Nb3784  Nb  0.575000  0.975000  0.625000
Ta3755  Ta  0.600000  0.950000  0.600000
Ta3756  Ta  0.625000  0.975000  0.625000
Nb3785  Nb  0.650000  0.950000  0.600000
Mo3785  Mo  0.675000  0.975000  0.625000
Mo3786  Mo  0.700000  0.950000  0.600000
Ta3757  Ta  0.725000  0.975000  0.625000
Mo3787  Mo  0.750000  0.950000  0.600000
W3753  W  0.775000  0.975000  0.625000
Mo3788  Mo  0.800000  0.950000  0.600000
W3754  W  0.825000  0.975000  0.625000
Ta3758  Ta  0.850000  0.950000  0.600000
Nb3786  Nb  0.875000  0.975000  0.625000
Ta3759  Ta  0.900000  0.950000  0.600000
Nb3787  Nb  0.925000  0.975000  0.625000
Ta3760  Ta  0.950000  0.950000  0.600000
Nb3788  Nb  0.975000  0.975000  0.625000
W3755  W  0.525000  0.675000  0.675000
W3756  W  0.575000  0.675000  0.675000
Nb3789  Nb  0.625000  0.675000  0.675000
Mo3789  Mo  0.675000  0.675000  0.675000
Nb3790  Nb  0.725000  0.675000  0.675000
Ta3761  Ta  0.775000  0.675000  0.675000
Nb3791  Nb  0.825000  0.675000  0.675000
Mo3790  Mo  0.875000  0.675000  0.675000
Ta3762  Ta  0.925000  0.675000  0.675000
Nb3792  Nb  0.975000  0.675000  0.675000
Ta3763  Ta  0.500000  0.700000  0.650000
Nb3793  Nb  0.525000  0.725000  0.675000
W3757  W  0.550000  0.700000  0.650000
W3758  W  0.575000  0.725000  0.675000
Nb3794  Nb  0.600000  0.700000  0.650000
W3759  W  0.625000  0.725000  0.675000
Nb3795  Nb  0.650000  0.700000  0.650000
Nb3796  Nb  0.675000  0.725000  0.675000
Ta3764  Ta  0.700000  0.700000  0.650000
W3760  W  0.725000  0.725000  0.675000
Nb3797  Nb  0.750000  0.700000  0.650000
W3761  W  0.775000  0.725000  0.675000
Mo3791  Mo  0.800000  0.700000  0.650000
Mo3792  Mo  0.825000  0.725000  0.675000
W3762  W  0.850000  0.700000  0.650000
Mo3793  Mo  0.875000  0.725000  0.675000
Ta3765  Ta  0.900000  0.700000  0.650000
Mo3794  Mo  0.925000  0.725000  0.675000
Mo3795  Mo  0.950000  0.700000  0.650000
Ta3766  Ta  0.975000  0.725000  0.675000
Mo3796  Mo  0.500000  0.750000  0.650000
Ta3767  Ta  0.525000  0.775000  0.675000
Mo3797  Mo  0.550000  0.750000  0.650000
W3763  W  0.575000  0.775000  0.675000
Mo3798  Mo  0.600000  0.750000  0.650000
W3764  W  0.625000  0.775000  0.675000
Mo3799  Mo  0.650000  0.750000  0.650000
Nb3798  Nb  0.675000  0.775000  0.675000
Nb3799  Nb  0.700000  0.750000  0.650000
Mo3800  Mo  0.725000  0.775000  0.675000
Ta3768  Ta  0.750000  0.750000  0.650000
Ta3769  Ta  0.775000  0.775000  0.675000
Ta3770  Ta  0.800000  0.750000  0.650000
Ta3771  Ta  0.825000  0.775000  0.675000
Ta3772  Ta  0.850000  0.750000  0.650000
W3765  W  0.875000  0.775000  0.675000
W3766  W  0.900000  0.750000  0.650000
Nb3800  Nb  0.925000  0.775000  0.675000
Nb3801  Nb  0.950000  0.750000  0.650000
Mo3801  Mo  0.975000  0.775000  0.675000
Mo3802  Mo  0.500000  0.800000  0.650000
Mo3803  Mo  0.525000  0.825000  0.675000
Mo3804  Mo  0.550000  0.800000  0.650000
Ta3773  Ta  0.575000  0.825000  0.675000
Nb3802  Nb  0.600000  0.800000  0.650000
Nb3803  Nb  0.625000  0.825000  0.675000
Nb3804  Nb  0.650000  0.800000  0.650000
Nb3805  Nb  0.675000  0.825000  0.675000
W3767  W  0.700000  0.800000  0.650000
Mo3805  Mo  0.725000  0.825000  0.675000
Nb3806  Nb  0.750000  0.800000  0.650000
Ta3774  Ta  0.775000  0.825000  0.675000
Nb3807  Nb  0.800000  0.800000  0.650000
Mo3806  Mo  0.825000  0.825000  0.675000
Mo3807  Mo  0.850000  0.800000  0.650000
W3768  W  0.875000  0.825000  0.675000
Ta3775  Ta  0.900000  0.800000  0.650000
Nb3808  Nb  0.925000  0.825000  0.675000
Nb3809  Nb  0.950000  0.800000  0.650000
Mo3808  Mo  0.975000  0.825000  0.675000
Ta3776  Ta  0.500000  0.850000  0.650000
Ta3777  Ta  0.525000  0.875000  0.675000
Mo3809  Mo  0.550000  0.850000  0.650000
Mo3810  Mo  0.575000  0.875000  0.675000
Mo3811  Mo  0.600000  0.850000  0.650000
W3769  W  0.625000  0.875000  0.675000
W3770  W  0.650000  0.850000  0.650000
Nb3810  Nb  0.675000  0.875000  0.675000
Nb3811  Nb  0.700000  0.850000  0.650000
Nb3812  Nb  0.725000  0.875000  0.675000
Nb3813  Nb  0.750000  0.850000  0.650000
Ta3778  Ta  0.775000  0.875000  0.675000
W3771  W  0.800000  0.850000  0.650000
W3772  W  0.825000  0.875000  0.675000
W3773  W  0.850000  0.850000  0.650000
Nb3814  Nb  0.875000  0.875000  0.675000
W3774  W  0.900000  0.850000  0.650000
Mo3812  Mo  0.925000  0.875000  0.675000
Nb3815  Nb  0.950000  0.850000  0.650000
Nb3816  Nb  0.975000  0.875000  0.675000
Ta3779  Ta  0.500000  0.900000  0.650000
Nb3817  Nb  0.525000  0.925000  0.675000
Mo3813  Mo  0.550000  0.900000  0.650000
Mo3814  Mo  0.575000  0.925000  0.675000
Mo3815  Mo  0.600000  0.900000  0.650000
W3775  W  0.625000  0.925000  0.675000
Mo3816  Mo  0.650000  0.900000  0.650000
W3776  W  0.675000  0.925000  0.675000
Nb3818  Nb  0.700000  0.900000  0.650000
Nb3819  Nb  0.725000  0.925000  0.675000
Mo3817  Mo  0.750000  0.900000  0.650000
W3777  W  0.775000  0.925000  0.675000
Nb3820  Nb  0.800000  0.900000  0.650000
Mo3818  Mo  0.825000  0.925000  0.675000
Ta3780  Ta  0.850000  0.900000  0.650000
Mo3819  Mo  0.875000  0.925000  0.675000
Ta3781  Ta  0.900000  0.900000  0.650000
W3778  W  0.925000  0.925000  0.675000
Ta3782  Ta  0.950000  0.900000  0.650000
Ta3783  Ta  0.975000  0.925000  0.675000
Mo3820  Mo  0.500000  0.950000  0.650000
W3779  W  0.525000  0.975000  0.675000
Ta3784  Ta  0.550000  0.950000  0.650000
Ta3785  Ta  0.575000  0.975000  0.675000
Nb3821  Nb  0.600000  0.950000  0.650000
Nb3822  Nb  0.625000  0.975000  0.675000
Nb3823  Nb  0.650000  0.950000  0.650000
W3780  W  0.675000  0.975000  0.675000
W3781  W  0.700000  0.950000  0.650000
Nb3824  Nb  0.725000  0.975000  0.675000
Mo3821  Mo  0.750000  0.950000  0.650000
Ta3786  Ta  0.775000  0.975000  0.675000
W3782  W  0.800000  0.950000  0.650000
Nb3825  Nb  0.825000  0.975000  0.675000
Ta3787  Ta  0.850000  0.950000  0.650000
Nb3826  Nb  0.875000  0.975000  0.675000
W3783  W  0.900000  0.950000  0.650000
Ta3788  Ta  0.925000  0.975000  0.675000
Nb3827  Nb  0.950000  0.950000  0.650000
Nb3828  Nb  0.975000  0.975000  0.675000
W3784  W  0.525000  0.675000  0.725000
W3785  W  0.575000  0.675000  0.725000
Ta3789  Ta  0.625000  0.675000  0.725000
Nb3829  Nb  0.675000  0.675000  0.725000
W3786  W  0.725000  0.675000  0.725000
Ta3790  Ta  0.775000  0.675000  0.725000
Ta3791  Ta  0.825000  0.675000  0.725000
W3787  W  0.875000  0.675000  0.725000
Ta3792  Ta  0.925000  0.675000  0.725000
Nb3830  Nb  0.975000  0.675000  0.725000
Ta3793  Ta  0.500000  0.700000  0.700000
Ta3794  Ta  0.525000  0.725000  0.725000
Mo3822  Mo  0.550000  0.700000  0.700000
W3788  W  0.575000  0.725000  0.725000
Mo3823  Mo  0.600000  0.700000  0.700000
Mo3824  Mo  0.625000  0.725000  0.725000
Ta3795  Ta  0.650000  0.700000  0.700000
W3789  W  0.675000  0.725000  0.725000
W3790  W  0.700000  0.700000  0.700000
W3791  W  0.725000  0.725000  0.725000
W3792  W  0.750000  0.700000  0.700000
Mo3825  Mo  0.775000  0.725000  0.725000
W3793  W  0.800000  0.700000  0.700000
Ta3796  Ta  0.825000  0.725000  0.725000
W3794  W  0.850000  0.700000  0.700000
Ta3797  Ta  0.875000  0.725000  0.725000
Ta3798  Ta  0.900000  0.700000  0.700000
Mo3826  Mo  0.925000  0.725000  0.725000
Nb3831  Nb  0.950000  0.700000  0.700000
Mo3827  Mo  0.975000  0.725000  0.725000
W3795  W  0.500000  0.750000  0.700000
Ta3799  Ta  0.525000  0.775000  0.725000
W3796  W  0.550000  0.750000  0.700000
W3797  W  0.575000  0.775000  0.725000
W3798  W  0.600000  0.750000  0.700000
W3799  W  0.625000  0.775000  0.725000
Nb3832  Nb  0.650000  0.750000  0.700000
Ta3800  Ta  0.675000  0.775000  0.725000
Ta3801  Ta  0.700000  0.750000  0.700000
Ta3802  Ta  0.725000  0.775000  0.725000
Ta3803  Ta  0.750000  0.750000  0.700000
Ta3804  Ta  0.775000  0.775000  0.725000
W3800  W  0.800000  0.750000  0.700000
Nb3833  Nb  0.825000  0.775000  0.725000
W3801  W  0.850000  0.750000  0.700000
Ta3805  Ta  0.875000  0.775000  0.725000
Ta3806  Ta  0.900000  0.750000  0.700000
W3802  W  0.925000  0.775000  0.725000
Nb3834  Nb  0.950000  0.750000  0.700000
Mo3828  Mo  0.975000  0.775000  0.725000
W3803  W  0.500000  0.800000  0.700000
Mo3829  Mo  0.525000  0.825000  0.725000
Mo3830  Mo  0.550000  0.800000  0.700000
Nb3835  Nb  0.575000  0.825000  0.725000
Ta3807  Ta  0.600000  0.800000  0.700000
Ta3808  Ta  0.625000  0.825000  0.725000
W3804  W  0.650000  0.800000  0.700000
W3805  W  0.675000  0.825000  0.725000
Ta3809  Ta  0.700000  0.800000  0.700000
Ta3810  Ta  0.725000  0.825000  0.725000
Ta3811  Ta  0.750000  0.800000  0.700000
Ta3812  Ta  0.775000  0.825000  0.725000
Ta3813  Ta  0.800000  0.800000  0.700000
W3806  W  0.825000  0.825000  0.725000
Ta3814  Ta  0.850000  0.800000  0.700000
Nb3836  Nb  0.875000  0.825000  0.725000
W3807  W  0.900000  0.800000  0.700000
Ta3815  Ta  0.925000  0.825000  0.725000
Mo3831  Mo  0.950000  0.800000  0.700000
Mo3832  Mo  0.975000  0.825000  0.725000
Nb3837  Nb  0.500000  0.850000  0.700000
Nb3838  Nb  0.525000  0.875000  0.725000
Ta3816  Ta  0.550000  0.850000  0.700000
Ta3817  Ta  0.575000  0.875000  0.725000
Ta3818  Ta  0.600000  0.850000  0.700000
Ta3819  Ta  0.625000  0.875000  0.725000
W3808  W  0.650000  0.850000  0.700000
W3809  W  0.675000  0.875000  0.725000
Nb3839  Nb  0.700000  0.850000  0.700000
W3810  W  0.725000  0.875000  0.725000
W3811  W  0.750000  0.850000  0.700000
Mo3833  Mo  0.775000  0.875000  0.725000
Nb3840  Nb  0.800000  0.850000  0.700000
Ta3820  Ta  0.825000  0.875000  0.725000
Mo3834  Mo  0.850000  0.850000  0.700000
Mo3835  Mo  0.875000  0.875000  0.725000
W3812  W  0.900000  0.850000  0.700000
Mo3836  Mo  0.925000  0.875000  0.725000
W3813  W  0.950000  0.850000  0.700000
W3814  W  0.975000  0.875000  0.725000
Mo3837  Mo  0.500000  0.900000  0.700000
W3815  W  0.525000  0.925000  0.725000
W3816  W  0.550000  0.900000  0.700000
Mo3838  Mo  0.575000  0.925000  0.725000
Ta3821  Ta  0.600000  0.900000  0.700000
Ta3822  Ta  0.625000  0.925000  0.725000
Ta3823  Ta  0.650000  0.900000  0.700000
Nb3841  Nb  0.675000  0.925000  0.725000
Mo3839  Mo  0.700000  0.900000  0.700000
W3817  W  0.725000  0.925000  0.725000
Nb3842  Nb  0.750000  0.900000  0.700000
W3818  W  0.775000  0.925000  0.725000
W3819  W  0.800000  0.900000  0.700000
Mo3840  Mo  0.825000  0.925000  0.725000
W3820  W  0.850000  0.900000  0.700000
W3821  W  0.875000  0.925000  0.725000
Nb3843  Nb  0.900000  0.900000  0.700000
W3822  W  0.925000  0.925000  0.725000
Ta3824  Ta  0.950000  0.900000  0.700000
W3823  W  0.975000  0.925000  0.725000
W3824  W  0.500000  0.950000  0.700000
W3825  W  0.525000  0.975000  0.725000
Nb3844  Nb  0.550000  0.950000  0.700000
W3826  W  0.575000  0.975000  0.725000
Ta3825  Ta  0.600000  0.950000  0.700000
W3827  W  0.625000  0.975000  0.725000
Ta3826  Ta  0.650000  0.950000  0.700000
Nb3845  Nb  0.675000  0.975000  0.725000
Mo3841  Mo  0.700000  0.950000  0.700000
Ta3827  Ta  0.725000  0.975000  0.725000
W3828  W  0.750000  0.950000  0.700000
W3829  W  0.775000  0.975000  0.725000
Ta3828  Ta  0.800000  0.950000  0.700000
Mo3842  Mo  0.825000  0.975000  0.725000
W3830  W  0.850000  0.950000  0.700000
Nb3846  Nb  0.875000  0.975000  0.725000
Nb3847  Nb  0.900000  0.950000  0.700000
Ta3829  Ta  0.925000  0.975000  0.725000
Ta3830  Ta  0.950000  0.950000  0.700000
Ta3831  Ta  0.975000  0.975000  0.725000
W3831  W  0.525000  0.675000  0.775000
Ta3832  Ta  0.575000  0.675000  0.775000
Mo3843  Mo  0.625000  0.675000  0.775000
W3832  W  0.675000  0.675000  0.775000
W3833  W  0.725000  0.675000  0.775000
W3834  W  0.775000  0.675000  0.775000
Nb3848  Nb  0.825000  0.675000  0.775000
W3835  W  0.875000  0.675000  0.775000
Mo3844  Mo  0.925000  0.675000  0.775000
Ta3833  Ta  0.975000  0.675000  0.775000
W3836  W  0.500000  0.700000  0.750000
W3837  W  0.525000  0.725000  0.775000
Ta3834  Ta  0.550000  0.700000  0.750000
Ta3835  Ta  0.575000  0.725000  0.775000
Mo3845  Mo  0.600000  0.700000  0.750000
W3838  W  0.625000  0.725000  0.775000
Ta3836  Ta  0.650000  0.700000  0.750000
W3839  W  0.675000  0.725000  0.775000
Nb3849  Nb  0.700000  0.700000  0.750000
Ta3837  Ta  0.725000  0.725000  0.775000
Mo3846  Mo  0.750000  0.700000  0.750000
Mo3847  Mo  0.775000  0.725000  0.775000
Ta3838  Ta  0.800000  0.700000  0.750000
W3840  W  0.825000  0.725000  0.775000
W3841  W  0.850000  0.700000  0.750000
Mo3848  Mo  0.875000  0.725000  0.775000
W3842  W  0.900000  0.700000  0.750000
Nb3850  Nb  0.925000  0.725000  0.775000
Mo3849  Mo  0.950000  0.700000  0.750000
Mo3850  Mo  0.975000  0.725000  0.775000
W3843  W  0.500000  0.750000  0.750000
Ta3839  Ta  0.525000  0.775000  0.775000
Ta3840  Ta  0.550000  0.750000  0.750000
W3844  W  0.575000  0.775000  0.775000
Nb3851  Nb  0.600000  0.750000  0.750000
Nb3852  Nb  0.625000  0.775000  0.775000
Mo3851  Mo  0.650000  0.750000  0.750000
Ta3841  Ta  0.675000  0.775000  0.775000
Ta3842  Ta  0.700000  0.750000  0.750000
W3845  W  0.725000  0.775000  0.775000
W3846  W  0.750000  0.750000  0.750000
W3847  W  0.775000  0.775000  0.775000
Nb3853  Nb  0.800000  0.750000  0.750000
W3848  W  0.825000  0.775000  0.775000
Mo3852  Mo  0.850000  0.750000  0.750000
W3849  W  0.875000  0.775000  0.775000
Ta3843  Ta  0.900000  0.750000  0.750000
Nb3854  Nb  0.925000  0.775000  0.775000
Nb3855  Nb  0.950000  0.750000  0.750000
W3850  W  0.975000  0.775000  0.775000
Ta3844  Ta  0.500000  0.800000  0.750000
Ta3845  Ta  0.525000  0.825000  0.775000
Nb3856  Nb  0.550000  0.800000  0.750000
W3851  W  0.575000  0.825000  0.775000
Mo3853  Mo  0.600000  0.800000  0.750000
Mo3854  Mo  0.625000  0.825000  0.775000
W3852  W  0.650000  0.800000  0.750000
Mo3855  Mo  0.675000  0.825000  0.775000
Mo3856  Mo  0.700000  0.800000  0.750000
Ta3846  Ta  0.725000  0.825000  0.775000
Ta3847  Ta  0.750000  0.800000  0.750000
W3853  W  0.775000  0.825000  0.775000
Ta3848  Ta  0.800000  0.800000  0.750000
Ta3849  Ta  0.825000  0.825000  0.775000
Mo3857  Mo  0.850000  0.800000  0.750000
Nb3857  Nb  0.875000  0.825000  0.775000
Ta3850  Ta  0.900000  0.800000  0.750000
Ta3851  Ta  0.925000  0.825000  0.775000
Mo3858  Mo  0.950000  0.800000  0.750000
Ta3852  Ta  0.975000  0.825000  0.775000
Nb3858  Nb  0.500000  0.850000  0.750000
Nb3859  Nb  0.525000  0.875000  0.775000
Ta3853  Ta  0.550000  0.850000  0.750000
Nb3860  Nb  0.575000  0.875000  0.775000
W3854  W  0.600000  0.850000  0.750000
Nb3861  Nb  0.625000  0.875000  0.775000
W3855  W  0.650000  0.850000  0.750000
W3856  W  0.675000  0.875000  0.775000
Mo3859  Mo  0.700000  0.850000  0.750000
W3857  W  0.725000  0.875000  0.775000
W3858  W  0.750000  0.850000  0.750000
W3859  W  0.775000  0.875000  0.775000
Mo3860  Mo  0.800000  0.850000  0.750000
Ta3854  Ta  0.825000  0.875000  0.775000
Mo3861  Mo  0.850000  0.850000  0.750000
Nb3862  Nb  0.875000  0.875000  0.775000
Nb3863  Nb  0.900000  0.850000  0.750000
Mo3862  Mo  0.925000  0.875000  0.775000
W3860  W  0.950000  0.850000  0.750000
Mo3863  Mo  0.975000  0.875000  0.775000
Mo3864  Mo  0.500000  0.900000  0.750000
Mo3865  Mo  0.525000  0.925000  0.775000
Ta3855  Ta  0.550000  0.900000  0.750000
W3861  W  0.575000  0.925000  0.775000
Ta3856  Ta  0.600000  0.900000  0.750000
Ta3857  Ta  0.625000  0.925000  0.775000
W3862  W  0.650000  0.900000  0.750000
W3863  W  0.675000  0.925000  0.775000
W3864  W  0.700000  0.900000  0.750000
W3865  W  0.725000  0.925000  0.775000
Nb3864  Nb  0.750000  0.900000  0.750000
W3866  W  0.775000  0.925000  0.775000
Mo3866  Mo  0.800000  0.900000  0.750000
Ta3858  Ta  0.825000  0.925000  0.775000
Ta3859  Ta  0.850000  0.900000  0.750000
Ta3860  Ta  0.875000  0.925000  0.775000
Nb3865  Nb  0.900000  0.900000  0.750000
Mo3867  Mo  0.925000  0.925000  0.775000
Nb3866  Nb  0.950000  0.900000  0.750000
Nb3867  Nb  0.975000  0.925000  0.775000
Ta3861  Ta  0.500000  0.950000  0.750000
Nb3868  Nb  0.525000  0.975000  0.775000
W3867  W  0.550000  0.950000  0.750000
Nb3869  Nb  0.575000  0.975000  0.775000
Nb3870  Nb  0.600000  0.950000  0.750000
Ta3862  Ta  0.625000  0.975000  0.775000
Mo3868  Mo  0.650000  0.950000  0.750000
Mo3869  Mo  0.675000  0.975000  0.775000
W3868  W  0.700000  0.950000  0.750000
Mo3870  Mo  0.725000  0.975000  0.775000
Ta3863  Ta  0.750000  0.950000  0.750000
Mo3871  Mo  0.775000  0.975000  0.775000
Mo3872  Mo  0.800000  0.950000  0.750000
W3869  W  0.825000  0.975000  0.775000
Mo3873  Mo  0.850000  0.950000  0.750000
Ta3864  Ta  0.875000  0.975000  0.775000
Ta3865  Ta  0.900000  0.950000  0.750000
Ta3866  Ta  0.925000  0.975000  0.775000
Mo3874  Mo  0.950000  0.950000  0.750000
Mo3875  Mo  0.975000  0.975000  0.775000
Mo3876  Mo  0.525000  0.675000  0.825000
Mo3877  Mo  0.575000  0.675000  0.825000
Ta3867  Ta  0.625000  0.675000  0.825000
Nb3871  Nb  0.675000  0.675000  0.825000
Nb3872  Nb  0.725000  0.675000  0.825000
W3870  W  0.775000  0.675000  0.825000
Ta3868  Ta  0.825000  0.675000  0.825000
Mo3878  Mo  0.875000  0.675000  0.825000
Nb3873  Nb  0.925000  0.675000  0.825000
Nb3874  Nb  0.975000  0.675000  0.825000
Ta3869  Ta  0.500000  0.700000  0.800000
W3871  W  0.525000  0.725000  0.825000
W3872  W  0.550000  0.700000  0.800000
W3873  W  0.575000  0.725000  0.825000
Nb3875  Nb  0.600000  0.700000  0.800000
Nb3876  Nb  0.625000  0.725000  0.825000
Nb3877  Nb  0.650000  0.700000  0.800000
W3874  W  0.675000  0.725000  0.825000
W3875  W  0.700000  0.700000  0.800000
Ta3870  Ta  0.725000  0.725000  0.825000
W3876  W  0.750000  0.700000  0.800000
W3877  W  0.775000  0.725000  0.825000
Nb3878  Nb  0.800000  0.700000  0.800000
Mo3879  Mo  0.825000  0.725000  0.825000
Nb3879  Nb  0.850000  0.700000  0.800000
W3878  W  0.875000  0.725000  0.825000
Nb3880  Nb  0.900000  0.700000  0.800000
Mo3880  Mo  0.925000  0.725000  0.825000
Mo3881  Mo  0.950000  0.700000  0.800000
Nb3881  Nb  0.975000  0.725000  0.825000
W3879  W  0.500000  0.750000  0.800000
Nb3882  Nb  0.525000  0.775000  0.825000
W3880  W  0.550000  0.750000  0.800000
Ta3871  Ta  0.575000  0.775000  0.825000
W3881  W  0.600000  0.750000  0.800000
Nb3883  Nb  0.625000  0.775000  0.825000
Ta3872  Ta  0.650000  0.750000  0.800000
W3882  W  0.675000  0.775000  0.825000
W3883  W  0.700000  0.750000  0.800000
Mo3882  Mo  0.725000  0.775000  0.825000
W3884  W  0.750000  0.750000  0.800000
Ta3873  Ta  0.775000  0.775000  0.825000
Ta3874  Ta  0.800000  0.750000  0.800000
Mo3883  Mo  0.825000  0.775000  0.825000
Ta3875  Ta  0.850000  0.750000  0.800000
Ta3876  Ta  0.875000  0.775000  0.825000
Ta3877  Ta  0.900000  0.750000  0.800000
Ta3878  Ta  0.925000  0.775000  0.825000
Nb3884  Nb  0.950000  0.750000  0.800000
Mo3884  Mo  0.975000  0.775000  0.825000
Ta3879  Ta  0.500000  0.800000  0.800000
Mo3885  Mo  0.525000  0.825000  0.825000
W3885  W  0.550000  0.800000  0.800000
W3886  W  0.575000  0.825000  0.825000
W3887  W  0.600000  0.800000  0.800000
Mo3886  Mo  0.625000  0.825000  0.825000
Nb3885  Nb  0.650000  0.800000  0.800000
Nb3886  Nb  0.675000  0.825000  0.825000
Ta3880  Ta  0.700000  0.800000  0.800000
W3888  W  0.725000  0.825000  0.825000
Ta3881  Ta  0.750000  0.800000  0.800000
W3889  W  0.775000  0.825000  0.825000
Ta3882  Ta  0.800000  0.800000  0.800000
Mo3887  Mo  0.825000  0.825000  0.825000
Mo3888  Mo  0.850000  0.800000  0.800000
Ta3883  Ta  0.875000  0.825000  0.825000
Ta3884  Ta  0.900000  0.800000  0.800000
Mo3889  Mo  0.925000  0.825000  0.825000
Nb3887  Nb  0.950000  0.800000  0.800000
Mo3890  Mo  0.975000  0.825000  0.825000
Ta3885  Ta  0.500000  0.850000  0.800000
W3890  W  0.525000  0.875000  0.825000
Nb3888  Nb  0.550000  0.850000  0.800000
Nb3889  Nb  0.575000  0.875000  0.825000
Ta3886  Ta  0.600000  0.850000  0.800000
Ta3887  Ta  0.625000  0.875000  0.825000
Mo3891  Mo  0.650000  0.850000  0.800000
Ta3888  Ta  0.675000  0.875000  0.825000
Mo3892  Mo  0.700000  0.850000  0.800000
Mo3893  Mo  0.725000  0.875000  0.825000
Mo3894  Mo  0.750000  0.850000  0.800000
W3891  W  0.775000  0.875000  0.825000
Mo3895  Mo  0.800000  0.850000  0.800000
Ta3889  Ta  0.825000  0.875000  0.825000
Nb3890  Nb  0.850000  0.850000  0.800000
Mo3896  Mo  0.875000  0.875000  0.825000
Ta3890  Ta  0.900000  0.850000  0.800000
Ta3891  Ta  0.925000  0.875000  0.825000
Mo3897  Mo  0.950000  0.850000  0.800000
W3892  W  0.975000  0.875000  0.825000
Nb3891  Nb  0.500000  0.900000  0.800000
Nb3892  Nb  0.525000  0.925000  0.825000
Nb3893  Nb  0.550000  0.900000  0.800000
Nb3894  Nb  0.575000  0.925000  0.825000
Nb3895  Nb  0.600000  0.900000  0.800000
W3893  W  0.625000  0.925000  0.825000
W3894  W  0.650000  0.900000  0.800000
W3895  W  0.675000  0.925000  0.825000
Mo3898  Mo  0.700000  0.900000  0.800000
Nb3896  Nb  0.725000  0.925000  0.825000
W3896  W  0.750000  0.900000  0.800000
W3897  W  0.775000  0.925000  0.825000
Nb3897  Nb  0.800000  0.900000  0.800000
W3898  W  0.825000  0.925000  0.825000
Nb3898  Nb  0.850000  0.900000  0.800000
W3899  W  0.875000  0.925000  0.825000
Nb3899  Nb  0.900000  0.900000  0.800000
Mo3899  Mo  0.925000  0.925000  0.825000
Ta3892  Ta  0.950000  0.900000  0.800000
Mo3900  Mo  0.975000  0.925000  0.825000
Mo3901  Mo  0.500000  0.950000  0.800000
W3900  W  0.525000  0.975000  0.825000
W3901  W  0.550000  0.950000  0.800000
W3902  W  0.575000  0.975000  0.825000
Nb3900  Nb  0.600000  0.950000  0.800000
W3903  W  0.625000  0.975000  0.825000
Mo3902  Mo  0.650000  0.950000  0.800000
Mo3903  Mo  0.675000  0.975000  0.825000
Nb3901  Nb  0.700000  0.950000  0.800000
Mo3904  Mo  0.725000  0.975000  0.825000
W3904  W  0.750000  0.950000  0.800000
Nb3902  Nb  0.775000  0.975000  0.825000
Mo3905  Mo  0.800000  0.950000  0.800000
Ta3893  Ta  0.825000  0.975000  0.825000
Ta3894  Ta  0.850000  0.950000  0.800000
W3905  W  0.875000  0.975000  0.825000
Ta3895  Ta  0.900000  0.950000  0.800000
Ta3896  Ta  0.925000  0.975000  0.825000
Mo3906  Mo  0.950000  0.950000  0.800000
Mo3907  Mo  0.975000  0.975000  0.825000
Mo3908  Mo  0.525000  0.675000  0.875000
Nb3903  Nb  0.575000  0.675000  0.875000
Ta3897  Ta  0.625000  0.675000  0.875000
Ta3898  Ta  0.675000  0.675000  0.875000
Ta3899  Ta  0.725000  0.675000  0.875000
Ta3900  Ta  0.775000  0.675000  0.875000
W3906  W  0.825000  0.675000  0.875000
Nb3904  Nb  0.875000  0.675000  0.875000
Nb3905  Nb  0.925000  0.675000  0.875000
Nb3906  Nb  0.975000  0.675000  0.875000
W3907  W  0.500000  0.700000  0.850000
Ta3901  Ta  0.525000  0.725000  0.875000
W3908  W  0.550000  0.700000  0.850000
Mo3909  Mo  0.575000  0.725000  0.875000
Mo3910  Mo  0.600000  0.700000  0.850000
Mo3911  Mo  0.625000  0.725000  0.875000
Ta3902  Ta  0.650000  0.700000  0.850000
W3909  W  0.675000  0.725000  0.875000
W3910  W  0.700000  0.700000  0.850000
Mo3912  Mo  0.725000  0.725000  0.875000
W3911  W  0.750000  0.700000  0.850000
W3912  W  0.775000  0.725000  0.875000
Ta3903  Ta  0.800000  0.700000  0.850000
Ta3904  Ta  0.825000  0.725000  0.875000
Nb3907  Nb  0.850000  0.700000  0.850000
Nb3908  Nb  0.875000  0.725000  0.875000
Mo3913  Mo  0.900000  0.700000  0.850000
Nb3909  Nb  0.925000  0.725000  0.875000
Ta3905  Ta  0.950000  0.700000  0.850000
Nb3910  Nb  0.975000  0.725000  0.875000
Ta3906  Ta  0.500000  0.750000  0.850000
W3913  W  0.525000  0.775000  0.875000
Nb3911  Nb  0.550000  0.750000  0.850000
Mo3914  Mo  0.575000  0.775000  0.875000
W3914  W  0.600000  0.750000  0.850000
Nb3912  Nb  0.625000  0.775000  0.875000
Nb3913  Nb  0.650000  0.750000  0.850000
Ta3907  Ta  0.675000  0.775000  0.875000
Ta3908  Ta  0.700000  0.750000  0.850000
Ta3909  Ta  0.725000  0.775000  0.875000
Mo3915  Mo  0.750000  0.750000  0.850000
W3915  W  0.775000  0.775000  0.875000
W3916  W  0.800000  0.750000  0.850000
Mo3916  Mo  0.825000  0.775000  0.875000
Nb3914  Nb  0.850000  0.750000  0.850000
W3917  W  0.875000  0.775000  0.875000
Mo3917  Mo  0.900000  0.750000  0.850000
W3918  W  0.925000  0.775000  0.875000
Nb3915  Nb  0.950000  0.750000  0.850000
Mo3918  Mo  0.975000  0.775000  0.875000
Nb3916  Nb  0.500000  0.800000  0.850000
W3919  W  0.525000  0.825000  0.875000
Mo3919  Mo  0.550000  0.800000  0.850000
Mo3920  Mo  0.575000  0.825000  0.875000
Ta3910  Ta  0.600000  0.800000  0.850000
W3920  W  0.625000  0.825000  0.875000
Ta3911  Ta  0.650000  0.800000  0.850000
Nb3917  Nb  0.675000  0.825000  0.875000
W3921  W  0.700000  0.800000  0.850000
Ta3912  Ta  0.725000  0.825000  0.875000
W3922  W  0.750000  0.800000  0.850000
Ta3913  Ta  0.775000  0.825000  0.875000
Nb3918  Nb  0.800000  0.800000  0.850000
Ta3914  Ta  0.825000  0.825000  0.875000
W3923  W  0.850000  0.800000  0.850000
Nb3919  Nb  0.875000  0.825000  0.875000
Mo3921  Mo  0.900000  0.800000  0.850000
Mo3922  Mo  0.925000  0.825000  0.875000
Ta3915  Ta  0.950000  0.800000  0.850000
W3924  W  0.975000  0.825000  0.875000
Mo3923  Mo  0.500000  0.850000  0.850000
Nb3920  Nb  0.525000  0.875000  0.875000
Ta3916  Ta  0.550000  0.850000  0.850000
Mo3924  Mo  0.575000  0.875000  0.875000
Mo3925  Mo  0.600000  0.850000  0.850000
Ta3917  Ta  0.625000  0.875000  0.875000
Nb3921  Nb  0.650000  0.850000  0.850000
Mo3926  Mo  0.675000  0.875000  0.875000
Ta3918  Ta  0.700000  0.850000  0.850000
Mo3927  Mo  0.725000  0.875000  0.875000
Nb3922  Nb  0.750000  0.850000  0.850000
Ta3919  Ta  0.775000  0.875000  0.875000
Nb3923  Nb  0.800000  0.850000  0.850000
W3925  W  0.825000  0.875000  0.875000
Mo3928  Mo  0.850000  0.850000  0.850000
W3926  W  0.875000  0.875000  0.875000
W3927  W  0.900000  0.850000  0.850000
W3928  W  0.925000  0.875000  0.875000
W3929  W  0.950000  0.850000  0.850000
Ta3920  Ta  0.975000  0.875000  0.875000
Nb3924  Nb  0.500000  0.900000  0.850000
Nb3925  Nb  0.525000  0.925000  0.875000
Ta3921  Ta  0.550000  0.900000  0.850000
W3930  W  0.575000  0.925000  0.875000
Ta3922  Ta  0.600000  0.900000  0.850000
Ta3923  Ta  0.625000  0.925000  0.875000
Mo3929  Mo  0.650000  0.900000  0.850000
Mo3930  Mo  0.675000  0.925000  0.875000
Mo3931  Mo  0.700000  0.900000  0.850000
W3931  W  0.725000  0.925000  0.875000
Ta3924  Ta  0.750000  0.900000  0.850000
Nb3926  Nb  0.775000  0.925000  0.875000
Mo3932  Mo  0.800000  0.900000  0.850000
W3932  W  0.825000  0.925000  0.875000
Nb3927  Nb  0.850000  0.900000  0.850000
Ta3925  Ta  0.875000  0.925000  0.875000
Mo3933  Mo  0.900000  0.900000  0.850000
W3933  W  0.925000  0.925000  0.875000
Nb3928  Nb  0.950000  0.900000  0.850000
W3934  W  0.975000  0.925000  0.875000
Mo3934  Mo  0.500000  0.950000  0.850000
Mo3935  Mo  0.525000  0.975000  0.875000
Nb3929  Nb  0.550000  0.950000  0.850000
Nb3930  Nb  0.575000  0.975000  0.875000
W3935  W  0.600000  0.950000  0.850000
Nb3931  Nb  0.625000  0.975000  0.875000
Nb3932  Nb  0.650000  0.950000  0.850000
Mo3936  Mo  0.675000  0.975000  0.875000
Ta3926  Ta  0.700000  0.950000  0.850000
Nb3933  Nb  0.725000  0.975000  0.875000
W3936  W  0.750000  0.950000  0.850000
Mo3937  Mo  0.775000  0.975000  0.875000
W3937  W  0.800000  0.950000  0.850000
Ta3927  Ta  0.825000  0.975000  0.875000
Mo3938  Mo  0.850000  0.950000  0.850000
Mo3939  Mo  0.875000  0.975000  0.875000
Ta3928  Ta  0.900000  0.950000  0.850000
Ta3929  Ta  0.925000  0.975000  0.875000
Ta3930  Ta  0.950000  0.950000  0.850000
Mo3940  Mo  0.975000  0.975000  0.875000
Ta3931  Ta  0.525000  0.675000  0.925000
Nb3934  Nb  0.575000  0.675000  0.925000
Mo3941  Mo  0.625000  0.675000  0.925000
W3938  W  0.675000  0.675000  0.925000
Nb3935  Nb  0.725000  0.675000  0.925000
Nb3936  Nb  0.775000  0.675000  0.925000
Ta3932  Ta  0.825000  0.675000  0.925000
Nb3937  Nb  0.875000  0.675000  0.925000
Mo3942  Mo  0.925000  0.675000  0.925000
Ta3933  Ta  0.975000  0.675000  0.925000
W3939  W  0.500000  0.700000  0.900000
W3940  W  0.525000  0.725000  0.925000
W3941  W  0.550000  0.700000  0.900000
W3942  W  0.575000  0.725000  0.925000
Nb3938  Nb  0.600000  0.700000  0.900000
Ta3934  Ta  0.625000  0.725000  0.925000
Ta3935  Ta  0.650000  0.700000  0.900000
W3943  W  0.675000  0.725000  0.925000
Nb3939  Nb  0.700000  0.700000  0.900000
Nb3940  Nb  0.725000  0.725000  0.925000
Mo3943  Mo  0.750000  0.700000  0.900000
Mo3944  Mo  0.775000  0.725000  0.925000
Ta3936  Ta  0.800000  0.700000  0.900000
Nb3941  Nb  0.825000  0.725000  0.925000
Ta3937  Ta  0.850000  0.700000  0.900000
Nb3942  Nb  0.875000  0.725000  0.925000
W3944  W  0.900000  0.700000  0.900000
Mo3945  Mo  0.925000  0.725000  0.925000
Mo3946  Mo  0.950000  0.700000  0.900000
Ta3938  Ta  0.975000  0.725000  0.925000
Nb3943  Nb  0.500000  0.750000  0.900000
Nb3944  Nb  0.525000  0.775000  0.925000
W3945  W  0.550000  0.750000  0.900000
W3946  W  0.575000  0.775000  0.925000
Mo3947  Mo  0.600000  0.750000  0.900000
Mo3948  Mo  0.625000  0.775000  0.925000
Nb3945  Nb  0.650000  0.750000  0.900000
Mo3949  Mo  0.675000  0.775000  0.925000
Mo3950  Mo  0.700000  0.750000  0.900000
Mo3951  Mo  0.725000  0.775000  0.925000
W3947  W  0.750000  0.750000  0.900000
Nb3946  Nb  0.775000  0.775000  0.925000
Ta3939  Ta  0.800000  0.750000  0.900000
Nb3947  Nb  0.825000  0.775000  0.925000
W3948  W  0.850000  0.750000  0.900000
Ta3940  Ta  0.875000  0.775000  0.925000
Ta3941  Ta  0.900000  0.750000  0.900000
Ta3942  Ta  0.925000  0.775000  0.925000
W3949  W  0.950000  0.750000  0.900000
W3950  W  0.975000  0.775000  0.925000
Mo3952  Mo  0.500000  0.800000  0.900000
Ta3943  Ta  0.525000  0.825000  0.925000
W3951  W  0.550000  0.800000  0.900000
W3952  W  0.575000  0.825000  0.925000
Mo3953  Mo  0.600000  0.800000  0.900000
Ta3944  Ta  0.625000  0.825000  0.925000
Nb3948  Nb  0.650000  0.800000  0.900000
W3953  W  0.675000  0.825000  0.925000
Nb3949  Nb  0.700000  0.800000  0.900000
Ta3945  Ta  0.725000  0.825000  0.925000
Mo3954  Mo  0.750000  0.800000  0.900000
W3954  W  0.775000  0.825000  0.925000
Nb3950  Nb  0.800000  0.800000  0.900000
Mo3955  Mo  0.825000  0.825000  0.925000
Nb3951  Nb  0.850000  0.800000  0.900000
Ta3946  Ta  0.875000  0.825000  0.925000
Ta3947  Ta  0.900000  0.800000  0.900000
W3955  W  0.925000  0.825000  0.925000
Nb3952  Nb  0.950000  0.800000  0.900000
Nb3953  Nb  0.975000  0.825000  0.925000
Nb3954  Nb  0.500000  0.850000  0.900000
Nb3955  Nb  0.525000  0.875000  0.925000
Mo3956  Mo  0.550000  0.850000  0.900000
Nb3956  Nb  0.575000  0.875000  0.925000
W3956  W  0.600000  0.850000  0.900000
W3957  W  0.625000  0.875000  0.925000
W3958  W  0.650000  0.850000  0.900000
W3959  W  0.675000  0.875000  0.925000
Ta3948  Ta  0.700000  0.850000  0.900000
Ta3949  Ta  0.725000  0.875000  0.925000
Ta3950  Ta  0.750000  0.850000  0.900000
W3960  W  0.775000  0.875000  0.925000
Ta3951  Ta  0.800000  0.850000  0.900000
Mo3957  Mo  0.825000  0.875000  0.925000
Nb3957  Nb  0.850000  0.850000  0.900000
Ta3952  Ta  0.875000  0.875000  0.925000
Ta3953  Ta  0.900000  0.850000  0.900000
W3961  W  0.925000  0.875000  0.925000
Nb3958  Nb  0.950000  0.850000  0.900000
W3962  W  0.975000  0.875000  0.925000
Ta3954  Ta  0.500000  0.900000  0.900000
Nb3959  Nb  0.525000  0.925000  0.925000
Ta3955  Ta  0.550000  0.900000  0.900000
W3963  W  0.575000  0.925000  0.925000
Mo3958  Mo  0.600000  0.900000  0.900000
W3964  W  0.625000  0.925000  0.925000
Nb3960  Nb  0.650000  0.900000  0.900000
W3965  W  0.675000  0.925000  0.925000
Mo3959  Mo  0.700000  0.900000  0.900000
Ta3956  Ta  0.725000  0.925000  0.925000
W3966  W  0.750000  0.900000  0.900000
Mo3960  Mo  0.775000  0.925000  0.925000
Mo3961  Mo  0.800000  0.900000  0.900000
Nb3961  Nb  0.825000  0.925000  0.925000
W3967  W  0.850000  0.900000  0.900000
Mo3962  Mo  0.875000  0.925000  0.925000
Ta3957  Ta  0.900000  0.900000  0.900000
Ta3958  Ta  0.925000  0.925000  0.925000
Mo3963  Mo  0.950000  0.900000  0.900000
W3968  W  0.975000  0.925000  0.925000
Ta3959  Ta  0.500000  0.950000  0.900000
W3969  W  0.525000  0.975000  0.925000
Ta3960  Ta  0.550000  0.950000  0.900000
Ta3961  Ta  0.575000  0.975000  0.925000
Nb3962  Nb  0.600000  0.950000  0.900000
Ta3962  Ta  0.625000  0.975000  0.925000
W3970  W  0.650000  0.950000  0.900000
Ta3963  Ta  0.675000  0.975000  0.925000
Ta3964  Ta  0.700000  0.950000  0.900000
Nb3963  Nb  0.725000  0.975000  0.925000
Mo3964  Mo  0.750000  0.950000  0.900000
Ta3965  Ta  0.775000  0.975000  0.925000
Mo3965  Mo  0.800000  0.950000  0.900000
Ta3966  Ta  0.825000  0.975000  0.925000
Nb3964  Nb  0.850000  0.950000  0.900000
Mo3966  Mo  0.875000  0.975000  0.925000
Mo3967  Mo  0.900000  0.950000  0.900000
Mo3968  Mo  0.925000  0.975000  0.925000
Ta3967  Ta  0.950000  0.950000  0.900000
W3971  W  0.975000  0.975000  0.925000
Mo3969  Mo  0.525000  0.675000  0.975000
Nb3965  Nb  0.575000  0.675000  0.975000
Nb3966  Nb  0.625000  0.675000  0.975000
Mo3970  Mo  0.675000  0.675000  0.975000
Mo3971  Mo  0.725000  0.675000  0.975000
Ta3968  Ta  0.775000  0.675000  0.975000
Nb3967  Nb  0.825000  0.675000  0.975000
W3972  W  0.875000  0.675000  0.975000
Nb3968  Nb  0.925000  0.675000  0.975000
Ta3969  Ta  0.975000  0.675000  0.975000
Ta3970  Ta  0.500000  0.700000  0.950000
Mo3972  Mo  0.525000  0.725000  0.975000
Ta3971  Ta  0.550000  0.700000  0.950000
Nb3969  Nb  0.575000  0.725000  0.975000
Nb3970  Nb  0.600000  0.700000  0.950000
W3973  W  0.625000  0.725000  0.975000
Nb3971  Nb  0.650000  0.700000  0.950000
W3974  W  0.675000  0.725000  0.975000
Nb3972  Nb  0.700000  0.700000  0.950000
W3975  W  0.725000  0.725000  0.975000
W3976  W  0.750000  0.700000  0.950000
Nb3973  Nb  0.775000  0.725000  0.975000
Mo3973  Mo  0.800000  0.700000  0.950000
W3977  W  0.825000  0.725000  0.975000
W3978  W  0.850000  0.700000  0.950000
W3979  W  0.875000  0.725000  0.975000
W3980  W  0.900000  0.700000  0.950000
Ta3972  Ta  0.925000  0.725000  0.975000
Mo3974  Mo  0.950000  0.700000  0.950000
Mo3975  Mo  0.975000  0.725000  0.975000
Mo3976  Mo  0.500000  0.750000  0.950000
Mo3977  Mo  0.525000  0.775000  0.975000
Nb3974  Nb  0.550000  0.750000  0.950000
Nb3975  Nb  0.575000  0.775000  0.975000
Nb3976  Nb  0.600000  0.750000  0.950000
Mo3978  Mo  0.625000  0.775000  0.975000
Ta3973  Ta  0.650000  0.750000  0.950000
W3981  W  0.675000  0.775000  0.975000
Nb3977  Nb  0.700000  0.750000  0.950000
Ta3974  Ta  0.725000  0.775000  0.975000
Ta3975  Ta  0.750000  0.750000  0.950000
Ta3976  Ta  0.775000  0.775000  0.975000
Ta3977  Ta  0.800000  0.750000  0.950000
Mo3979  Mo  0.825000  0.775000  0.975000
Mo3980  Mo  0.850000  0.750000  0.950000
Mo3981  Mo  0.875000  0.775000  0.975000
Nb3978  Nb  0.900000  0.750000  0.950000
Ta3978  Ta  0.925000  0.775000  0.975000
Mo3982  Mo  0.950000  0.750000  0.950000
W3982  W  0.975000  0.775000  0.975000
Mo3983  Mo  0.500000  0.800000  0.950000
Ta3979  Ta  0.525000  0.825000  0.975000
Ta3980  Ta  0.550000  0.800000  0.950000
W3983  W  0.575000  0.825000  0.975000
Ta3981  Ta  0.600000  0.800000  0.950000
Ta3982  Ta  0.625000  0.825000  0.975000
Nb3979  Nb  0.650000  0.800000  0.950000
Nb3980  Nb  0.675000  0.825000  0.975000
W3984  W  0.700000  0.800000  0.950000
Nb3981  Nb  0.725000  0.825000  0.975000
Nb3982  Nb  0.750000  0.800000  0.950000
Mo3984  Mo  0.775000  0.825000  0.975000
Ta3983  Ta  0.800000  0.800000  0.950000
Nb3983  Nb  0.825000  0.825000  0.975000
Nb3984  Nb  0.850000  0.800000  0.950000
Nb3985  Nb  0.875000  0.825000  0.975000
Mo3985  Mo  0.900000  0.800000  0.950000
Nb3986  Nb  0.925000  0.825000  0.975000
Mo3986  Mo  0.950000  0.800000  0.950000
Ta3984  Ta  0.975000  0.825000  0.975000
Nb3987  Nb  0.500000  0.850000  0.950000
Mo3987  Mo  0.525000  0.875000  0.975000
Mo3988  Mo  0.550000  0.850000  0.950000
W3985  W  0.575000  0.875000  0.975000
W3986  W  0.600000  0.850000  0.950000
Ta3985  Ta  0.625000  0.875000  0.975000
Ta3986  Ta  0.650000  0.850000  0.950000
Nb3988  Nb  0.675000  0.875000  0.975000
W3987  W  0.700000  0.850000  0.950000
Nb3989  Nb  0.725000  0.875000  0.975000
W3988  W  0.750000  0.850000  0.950000
Nb3990  Nb  0.775000  0.875000  0.975000
Nb3991  Nb  0.800000  0.850000  0.950000
Mo3989  Mo  0.825000  0.875000  0.975000
W3989  W  0.850000  0.850000  0.950000
W3990  W  0.875000  0.875000  0.975000
W3991  W  0.900000  0.850000  0.950000
Mo3990  Mo  0.925000  0.875000  0.975000
W3992  W  0.950000  0.850000  0.950000
Mo3991  Mo  0.975000  0.875000  0.975000
W3993  W  0.500000  0.900000  0.950000
Nb3992  Nb  0.525000  0.925000  0.975000
W3994  W  0.550000  0.900000  0.950000
W3995  W  0.575000  0.925000  0.975000
Ta3987  Ta  0.600000  0.900000  0.950000
Ta3988  Ta  0.625000  0.925000  0.975000
Ta3989  Ta  0.650000  0.900000  0.950000
Mo3992  Mo  0.675000  0.925000  0.975000
Ta3990  Ta  0.700000  0.900000  0.950000
W3996  W  0.725000  0.925000  0.975000
Mo3993  Mo  0.750000  0.900000  0.950000
Mo3994  Mo  0.775000  0.925000  0.975000
Nb3993  Nb  0.800000  0.900000  0.950000
W3997  W  0.825000  0.925000  0.975000
Ta3991  Ta  0.850000  0.900000  0.950000
Ta3992  Ta  0.875000  0.925000  0.975000
Ta3993  Ta  0.900000  0.900000  0.950000
Nb3994  Nb  0.925000  0.925000  0.975000
Ta3994  Ta  0.950000  0.900000  0.950000
Nb3995  Nb  0.975000  0.925000  0.975000
Mo3995  Mo  0.500000  0.950000  0.950000
Ta3995  Ta  0.525000  0.975000  0.975000
Ta3996  Ta  0.550000  0.950000  0.950000
Ta3997  Ta  0.575000  0.975000  0.975000
Nb3996  Nb  0.600000  0.950000  0.950000
Ta3998  Ta  0.625000  0.975000  0.975000
W3998  W  0.650000  0.950000  0.950000
Mo3996  Mo  0.675000  0.975000  0.975000
Nb3997  Nb  0.700000  0.950000  0.950000
Nb3998  Nb  0.725000  0.975000  0.975000
Ta3999  Ta  0.750000  0.950000  0.950000
Mo3997  Mo  0.775000  0.975000  0.975000
Nb3999  Nb  0.800000  0.950000  0.950000
Mo3998  Mo  0.825000  0.975000  0.975000
W3999  W  0.850000  0.950000  0.950000
Mo3999  Mo  0.875000  0.975000  0.975000
Mo4000  Mo  0.900000  0.950000  0.950000
Ta4000  Ta  0.925000  0.975000  0.975000
W4000  W  0.950000  0.950000  0.950000
Nb4000  Nb  0.975000  0.975000  0.975000
